<?xml version="1.0" encoding="UTF-8"?>

<!-- generated on 2026-03-24 19:17:23.139112 by Eclipse SUMO randomTrips.py v1_26_0+0000-fa7df22d7f1
<configuration>
    <net-file value="D:\DO AN\GreenVein_Project\envs\map.net.xml"/>
    <route-file value="D:\DO AN\GreenVein_Project\envs\motos.rou.xml"/>
    <prefix value="moto_"/>
    <vehicle-class value="motorcycle"/>
    <allow-fringe value="True"/>
    <random value="True"/>
    <period value="0.3"/>
</configuration>
-->

<routes xmlns:xsi="http://www.w3.org/2001/XMLSchema-instance" xsi:noNamespaceSchemaLocation="http://sumo.dlr.de/xsd/routes_file.xsd">
    <vType id="moto__motorcycle" vClass="motorcycle"/>
    <trip id="moto_0" depart="0.00" from="1345335813" to="-675260210#2" type="moto__motorcycle"/>
    <trip id="moto_1" depart="0.30" from="-774597880#3" to="-708928718#0" type="moto__motorcycle"/>
    <trip id="moto_2" depart="0.60" from="-596721713#3" to="29113024#1" type="moto__motorcycle"/>
    <trip id="moto_3" depart="0.90" from="1043320633" to="-838425493#5" type="moto__motorcycle"/>
    <trip id="moto_4" depart="1.20" from="37972515#14" to="708891237#4" type="moto__motorcycle"/>
    <trip id="moto_5" depart="1.50" from="946867354#3" to="546999873#1" type="moto__motorcycle"/>
    <trip id="moto_6" depart="1.80" from="-11711997#10" to="-774597880#1" type="moto__motorcycle"/>
    <trip id="moto_7" depart="2.10" from="1395144950#7" to="29113022#0" type="moto__motorcycle"/>
    <trip id="moto_8" depart="2.40" from="164211343" to="816208527#1" type="moto__motorcycle"/>
    <trip id="moto_9" depart="2.70" from="838425493#2" to="28947038#1" type="moto__motorcycle"/>
    <trip id="moto_10" depart="3.00" from="36869877#5" to="-28947150#2" type="moto__motorcycle"/>
    <trip id="moto_11" depart="3.30" from="1413200272#1" to="-675260216#0" type="moto__motorcycle"/>
    <trip id="moto_12" depart="3.60" from="-723144694#0" to="1089001011#0" type="moto__motorcycle"/>
    <trip id="moto_13" depart="3.90" from="1413200272#0" to="709022104#0" type="moto__motorcycle"/>
    <trip id="moto_14" depart="4.20" from="946867354#3" to="683844933#3" type="moto__motorcycle"/>
    <trip id="moto_15" depart="4.50" from="570570858#1" to="-597126925" type="moto__motorcycle"/>
    <trip id="moto_16" depart="4.80" from="11706783#2" to="722894415#1" type="moto__motorcycle"/>
    <trip id="moto_17" depart="5.10" from="-251780514#0" to="1242184420#1" type="moto__motorcycle"/>
    <trip id="moto_18" depart="5.40" from="708576344" to="1180597073#20" type="moto__motorcycle"/>
    <trip id="moto_19" depart="5.70" from="600000320#2" to="29313247#4" type="moto__motorcycle"/>
    <trip id="moto_20" depart="6.00" from="37862483#1" to="-722894415#2" type="moto__motorcycle"/>
    <trip id="moto_21" depart="6.30" from="848915395#1" to="-11839377#2" type="moto__motorcycle"/>
    <trip id="moto_22" depart="6.60" from="-600582016#0" to="-29046492#8" type="moto__motorcycle"/>
    <trip id="moto_23" depart="6.90" from="-709360979#3" to="-946867354#1" type="moto__motorcycle"/>
    <trip id="moto_24" depart="7.20" from="-28947149#3" to="1012665677" type="moto__motorcycle"/>
    <trip id="moto_25" depart="7.50" from="1276334499#5" to="25953590#0" type="moto__motorcycle"/>
    <trip id="moto_26" depart="7.80" from="593642481#2" to="220360797#1" type="moto__motorcycle"/>
    <trip id="moto_27" depart="8.10" from="11839377#5" to="-1390903369#3" type="moto__motorcycle"/>
    <trip id="moto_28" depart="8.40" from="675260212#8" to="774597880#1" type="moto__motorcycle"/>
    <trip id="moto_29" depart="8.70" from="1210949543#0" to="885163364" type="moto__motorcycle"/>
    <trip id="moto_30" depart="9.00" from="701841904#6" to="-897914267#7" type="moto__motorcycle"/>
    <trip id="moto_31" depart="9.30" from="-136557057#5" to="-838425493#9" type="moto__motorcycle"/>
    <trip id="moto_32" depart="9.60" from="711031659" to="37906058#2" type="moto__motorcycle"/>
    <trip id="moto_33" depart="9.90" from="1276334499#4" to="-11839377#4" type="moto__motorcycle"/>
    <trip id="moto_34" depart="10.20" from="-946867354#7" to="1185723926" type="moto__motorcycle"/>
    <trip id="moto_35" depart="10.50" from="710298224#0" to="-179996743#1" type="moto__motorcycle"/>
    <trip id="moto_36" depart="10.80" from="597543673" to="816208527#0" type="moto__motorcycle"/>
    <trip id="moto_37" depart="11.10" from="600484042#2" to="710298224#0" type="moto__motorcycle"/>
    <trip id="moto_38" depart="11.40" from="-596721713#12" to="838425493#7" type="moto__motorcycle"/>
    <trip id="moto_39" depart="11.70" from="-200537620#4" to="-1276334499#0" type="moto__motorcycle"/>
    <trip id="moto_40" depart="12.00" from="-597117003#3" to="219978239#6" type="moto__motorcycle"/>
    <trip id="moto_41" depart="12.30" from="28947149#4" to="136557777#1" type="moto__motorcycle"/>
    <trip id="moto_42" depart="12.60" from="-1231374926" to="875229040" type="moto__motorcycle"/>
    <trip id="moto_43" depart="12.90" from="1215943717#2" to="28924688#1" type="moto__motorcycle"/>
    <trip id="moto_44" depart="13.20" from="1180597073#19" to="1333363797#1" type="moto__motorcycle"/>
    <trip id="moto_45" depart="13.50" from="-11711997#10" to="707066366#5" type="moto__motorcycle"/>
    <trip id="moto_46" depart="13.80" from="28947038#3" to="-11707208" type="moto__motorcycle"/>
    <trip id="moto_47" depart="14.10" from="-597119951" to="28958235#8" type="moto__motorcycle"/>
    <trip id="moto_48" depart="14.40" from="-1180597073#31" to="600137636#1" type="moto__motorcycle"/>
    <trip id="moto_49" depart="14.70" from="709356405#1" to="-838425493#13" type="moto__motorcycle"/>
    <trip id="moto_50" depart="15.00" from="702919616#0" to="136557833#1" type="moto__motorcycle"/>
    <trip id="moto_51" depart="15.30" from="-179996748#2" to="36182665#4" type="moto__motorcycle"/>
    <trip id="moto_52" depart="15.60" from="-37972515#20" to="1276334499#7" type="moto__motorcycle"/>
    <trip id="moto_53" depart="15.90" from="-675260226#0" to="28958235#8" type="moto__motorcycle"/>
    <trip id="moto_54" depart="16.20" from="-675260212#3" to="683852462#1" type="moto__motorcycle"/>
    <trip id="moto_55" depart="16.50" from="1262818190#1" to="-29046492#4" type="moto__motorcycle"/>
    <trip id="moto_56" depart="16.80" from="1262812937#3" to="-708928718#2" type="moto__motorcycle"/>
    <trip id="moto_57" depart="17.10" from="-200537620#1" to="-180083167#2" type="moto__motorcycle"/>
    <trip id="moto_58" depart="17.40" from="1422989226" to="838425493#9" type="moto__motorcycle"/>
    <trip id="moto_59" depart="17.70" from="-708924032#8" to="-1177168458#4" type="moto__motorcycle"/>
    <trip id="moto_60" depart="18.00" from="945322256#2" to="709678322#0" type="moto__motorcycle"/>
    <trip id="moto_61" depart="18.30" from="-38028943#2" to="707087634#0" type="moto__motorcycle"/>
    <trip id="moto_62" depart="18.60" from="-596721713#7" to="180083167#3" type="moto__motorcycle"/>
    <trip id="moto_63" depart="18.90" from="180083167#5" to="-25953593#1" type="moto__motorcycle"/>
    <trip id="moto_64" depart="19.20" from="-707066366#0" to="200537620#1" type="moto__motorcycle"/>
    <trip id="moto_65" depart="19.50" from="-708924032#1" to="709673459" type="moto__motorcycle"/>
    <trip id="moto_66" depart="19.80" from="857047108#9" to="560585021#3" type="moto__motorcycle"/>
    <trip id="moto_67" depart="20.10" from="1262817316#0" to="1344929479#9" type="moto__motorcycle"/>
    <trip id="moto_68" depart="20.40" from="25953593#1" to="546999873#1" type="moto__motorcycle"/>
    <trip id="moto_69" depart="20.70" from="-1276334499#4" to="-707157542#3" type="moto__motorcycle"/>
    <trip id="moto_70" depart="21.00" from="711106357#0" to="-774597880#5" type="moto__motorcycle"/>
    <trip id="moto_71" depart="21.30" from="1194666255#0" to="156006452#3" type="moto__motorcycle"/>
    <trip id="moto_72" depart="21.60" from="148202928#5" to="-570570858#2" type="moto__motorcycle"/>
    <trip id="moto_73" depart="21.90" from="29113026#4" to="-37967009#0" type="moto__motorcycle"/>
    <trip id="moto_74" depart="22.20" from="701841904#6" to="560585019#2" type="moto__motorcycle"/>
    <trip id="moto_75" depart="22.50" from="29046492#10" to="945322275#5" type="moto__motorcycle"/>
    <trip id="moto_76" depart="22.80" from="-37972515#5" to="179996743#2" type="moto__motorcycle"/>
    <trip id="moto_77" depart="23.10" from="1180597073#31" to="-774597880#1" type="moto__motorcycle"/>
    <trip id="moto_78" depart="23.40" from="179996746#3" to="862423885#0" type="moto__motorcycle"/>
    <trip id="moto_79" depart="23.70" from="-597119950#2" to="-179989575#1" type="moto__motorcycle"/>
    <trip id="moto_80" depart="24.00" from="600131699" to="-1180597073#34" type="moto__motorcycle"/>
    <trip id="moto_81" depart="24.30" from="857047108#10" to="-946030655#12" type="moto__motorcycle"/>
    <trip id="moto_82" depart="24.60" from="29113026#2" to="1328292399#3" type="moto__motorcycle"/>
    <trip id="moto_83" depart="24.90" from="-1191172261#1" to="402400378#7" type="moto__motorcycle"/>
    <trip id="moto_84" depart="25.20" from="1180597073#1" to="-1391732618#0" type="moto__motorcycle"/>
    <trip id="moto_85" depart="25.50" from="-600037946#4" to="37891457#1" type="moto__motorcycle"/>
    <trip id="moto_86" depart="25.80" from="-897914267#4" to="-29046492#8" type="moto__motorcycle"/>
    <trip id="moto_87" depart="26.10" from="707087634#1" to="-711031662#0" type="moto__motorcycle"/>
    <trip id="moto_88" depart="26.40" from="708924032#7" to="707072725#2" type="moto__motorcycle"/>
    <trip id="moto_89" depart="26.70" from="707157542#4" to="-708891237#0" type="moto__motorcycle"/>
    <trip id="moto_90" depart="27.00" from="1107122299" to="617351094#0" type="moto__motorcycle"/>
    <trip id="moto_91" depart="27.30" from="29046492#15" to="399835503#1" type="moto__motorcycle"/>
    <trip id="moto_92" depart="27.60" from="703109533" to="-29101513#1" type="moto__motorcycle"/>
    <trip id="moto_93" depart="27.90" from="1204846892#0" to="237322638#7" type="moto__motorcycle"/>
    <trip id="moto_94" depart="28.20" from="-1180597073#33" to="-708924032#5" type="moto__motorcycle"/>
    <trip id="moto_95" depart="28.50" from="708924032#6" to="164211021#1" type="moto__motorcycle"/>
    <trip id="moto_96" depart="28.80" from="-28924688#2" to="-1180597073#14" type="moto__motorcycle"/>
    <trip id="moto_97" depart="29.10" from="1180597073#22" to="-1276334499#5" type="moto__motorcycle"/>
    <trip id="moto_98" depart="29.40" from="-509634206#3" to="597117003#2" type="moto__motorcycle"/>
    <trip id="moto_99" depart="29.70" from="1488544882#3" to="-946867353#1" type="moto__motorcycle"/>
    <trip id="moto_100" depart="30.00" from="397649390#3" to="711362081#0" type="moto__motorcycle"/>
    <trip id="moto_101" depart="30.30" from="-1180597073#2" to="-37861980#2" type="moto__motorcycle"/>
    <trip id="moto_102" depart="30.60" from="708918910#2" to="37891457#7" type="moto__motorcycle"/>
    <trip id="moto_103" depart="30.90" from="-597117003#0" to="37862483#5" type="moto__motorcycle"/>
    <trip id="moto_104" depart="31.20" from="163711331#4" to="708658353#1" type="moto__motorcycle"/>
    <trip id="moto_105" depart="31.50" from="1243070839#3" to="-1180597073#5" type="moto__motorcycle"/>
    <trip id="moto_106" depart="31.80" from="1233979452" to="711052548#0" type="moto__motorcycle"/>
    <trip id="moto_107" depart="32.10" from="506383096#0" to="-702927010#0" type="moto__motorcycle"/>
    <trip id="moto_108" depart="32.40" from="946867354#4" to="707157542#4" type="moto__motorcycle"/>
    <trip id="moto_109" depart="32.70" from="-1180597073#34" to="220360797#3" type="moto__motorcycle"/>
    <trip id="moto_110" depart="33.00" from="11707208" to="1276334499#3" type="moto__motorcycle"/>
    <trip id="moto_111" depart="33.30" from="1262818191#2" to="617351094#0" type="moto__motorcycle"/>
    <trip id="moto_112" depart="33.60" from="-179996746#0" to="1203979590#0" type="moto__motorcycle"/>
    <trip id="moto_113" depart="33.90" from="-707087638#1" to="-707066366#11" type="moto__motorcycle"/>
    <trip id="moto_114" depart="34.20" from="1413200272#1" to="-897914267#5" type="moto__motorcycle"/>
    <trip id="moto_115" depart="34.50" from="29313247#2" to="857047108#3" type="moto__motorcycle"/>
    <trip id="moto_116" depart="34.80" from="-617351094#7" to="-774597880#6" type="moto__motorcycle"/>
    <trip id="moto_117" depart="35.10" from="180083164#8" to="838425492#2" type="moto__motorcycle"/>
    <trip id="moto_118" depart="35.40" from="-1180597073#21" to="28103241#2" type="moto__motorcycle"/>
    <trip id="moto_119" depart="35.70" from="-747749907#1" to="709356406" type="moto__motorcycle"/>
    <trip id="moto_120" depart="36.00" from="-708924032#1" to="1328292399#1" type="moto__motorcycle"/>
    <trip id="moto_121" depart="36.30" from="-675260216#0" to="1317516879#1" type="moto__motorcycle"/>
    <trip id="moto_122" depart="36.60" from="180082707#1" to="537687398#1" type="moto__motorcycle"/>
    <trip id="moto_123" depart="36.90" from="1231370731" to="1180597073#10" type="moto__motorcycle"/>
    <trip id="moto_124" depart="37.20" from="-1043320633" to="1185923380#1" type="moto__motorcycle"/>
    <trip id="moto_125" depart="37.50" from="1257401279#0" to="28924688#6" type="moto__motorcycle"/>
    <trip id="moto_126" depart="37.80" from="-617351094#5" to="-25953656#5" type="moto__motorcycle"/>
    <trip id="moto_127" depart="38.10" from="37972515#10" to="-711362081#0" type="moto__motorcycle"/>
    <trip id="moto_128" depart="38.40" from="28947134#2" to="-136557057#2" type="moto__motorcycle"/>
    <trip id="moto_129" depart="38.70" from="28103241#0" to="1252227851" type="moto__motorcycle"/>
    <trip id="moto_130" depart="39.00" from="875229039" to="-180083167#5" type="moto__motorcycle"/>
    <trip id="moto_131" depart="39.30" from="200537620#3" to="-675260240#2" type="moto__motorcycle"/>
    <trip id="moto_132" depart="39.60" from="-932707184#0" to="25953535#1" type="moto__motorcycle"/>
    <trip id="moto_133" depart="39.90" from="-1266983913#0" to="707087638#0" type="moto__motorcycle"/>
    <trip id="moto_134" depart="40.20" from="1416901380#0" to="-1395144950#8" type="moto__motorcycle"/>
    <trip id="moto_135" depart="40.50" from="-1180597073#24" to="-675260212#8" type="moto__motorcycle"/>
    <trip id="moto_136" depart="40.80" from="687189723#5" to="597117003#5" type="moto__motorcycle"/>
    <trip id="moto_137" depart="41.10" from="-711362081#2" to="-597117003#3" type="moto__motorcycle"/>
    <trip id="moto_138" depart="41.40" from="597119951" to="-946030655#5" type="moto__motorcycle"/>
    <trip id="moto_139" depart="41.70" from="-600000320#9" to="708576347#2" type="moto__motorcycle"/>
    <trip id="moto_140" depart="42.00" from="709017797#0" to="37891457#9" type="moto__motorcycle"/>
    <trip id="moto_141" depart="42.30" from="-37972515#23" to="-25953590#2" type="moto__motorcycle"/>
    <trip id="moto_142" depart="42.60" from="616838547" to="-711362081#0" type="moto__motorcycle"/>
    <trip id="moto_143" depart="42.90" from="-600000320#3" to="25953590#7" type="moto__motorcycle"/>
    <trip id="moto_144" depart="43.20" from="707087638#0" to="1204913756#1" type="moto__motorcycle"/>
    <trip id="moto_145" depart="43.50" from="1488544882#10" to="-1276334499#4" type="moto__motorcycle"/>
    <trip id="moto_146" depart="43.80" from="-1266983913#1" to="774597880#2" type="moto__motorcycle"/>
    <trip id="moto_147" depart="44.10" from="-28947148#0" to="1257110006#0" type="moto__motorcycle"/>
    <trip id="moto_148" depart="44.40" from="707157542#4" to="-616512988#1" type="moto__motorcycle"/>
    <trip id="moto_149" depart="44.70" from="-29046492#9" to="838425492#6" type="moto__motorcycle"/>
    <trip id="moto_150" depart="45.00" from="1215943717#0" to="-946030655#3" type="moto__motorcycle"/>
    <trip id="moto_151" depart="45.30" from="596721713#7" to="-600000320#5" type="moto__motorcycle"/>
    <trip id="moto_152" depart="45.60" from="875229040" to="-28947038#3" type="moto__motorcycle"/>
    <trip id="moto_153" depart="45.90" from="707066366#10" to="-897914267#6" type="moto__motorcycle"/>
    <trip id="moto_154" depart="46.20" from="702927009" to="600582016#0" type="moto__motorcycle"/>
    <trip id="moto_155" depart="46.50" from="1214455905#2" to="-1413200272#0" type="moto__motorcycle"/>
    <trip id="moto_156" depart="46.80" from="1180597073#16" to="708928718#3" type="moto__motorcycle"/>
    <trip id="moto_157" depart="47.10" from="546999873#1" to="-1215943717#1" type="moto__motorcycle"/>
    <trip id="moto_158" depart="47.40" from="180082716#0" to="1262812937#6" type="moto__motorcycle"/>
    <trip id="moto_159" depart="47.70" from="-839881654#3" to="848915391" type="moto__motorcycle"/>
    <trip id="moto_160" depart="48.00" from="708584851#1" to="-597119953" type="moto__motorcycle"/>
    <trip id="moto_161" depart="48.30" from="25953656#1" to="702927014#2" type="moto__motorcycle"/>
    <trip id="moto_162" depart="48.60" from="1246265594#0" to="-600000320#5" type="moto__motorcycle"/>
    <trip id="moto_163" depart="48.90" from="-546999873#3" to="194581841#3" type="moto__motorcycle"/>
    <trip id="moto_164" depart="49.20" from="25953552#1" to="-178093643#3" type="moto__motorcycle"/>
    <trip id="moto_165" depart="49.50" from="-29046492#15" to="702919616#3" type="moto__motorcycle"/>
    <trip id="moto_166" depart="49.80" from="1395144950#9" to="-675260242#2" type="moto__motorcycle"/>
    <trip id="moto_167" depart="50.10" from="-1231370732#0" to="-25953552#1" type="moto__motorcycle"/>
    <trip id="moto_168" depart="50.40" from="-600484044#1" to="-28947038#2" type="moto__motorcycle"/>
    <trip id="moto_169" depart="50.70" from="-774597880#3" to="932707184#2" type="moto__motorcycle"/>
    <trip id="moto_170" depart="51.00" from="-37861980#0" to="-949108818#4" type="moto__motorcycle"/>
    <trip id="moto_171" depart="51.30" from="596710686#1" to="707066366#1" type="moto__motorcycle"/>
    <trip id="moto_172" depart="51.60" from="600582044#1" to="1297912943#1" type="moto__motorcycle"/>
    <trip id="moto_173" depart="51.90" from="-25953590#5" to="-28958235#1" type="moto__motorcycle"/>
    <trip id="moto_174" depart="52.20" from="-600127339#1" to="710333846#1" type="moto__motorcycle"/>
    <trip id="moto_175" depart="52.50" from="163711328#0" to="597117003#4" type="moto__motorcycle"/>
    <trip id="moto_176" depart="52.80" from="-28958235#3" to="37862483#3" type="moto__motorcycle"/>
    <trip id="moto_177" depart="53.10" from="-596721713#10" to="-857047108#11" type="moto__motorcycle"/>
    <trip id="moto_178" depart="53.40" from="848915395#1" to="1344929479#8" type="moto__motorcycle"/>
    <trip id="moto_179" depart="53.70" from="1191172261#1" to="-675260242#0" type="moto__motorcycle"/>
    <trip id="moto_180" depart="54.00" from="707087634#0" to="-1180597073#11" type="moto__motorcycle"/>
    <trip id="moto_181" depart="54.30" from="506383096#2" to="25953593#1" type="moto__motorcycle"/>
    <trip id="moto_182" depart="54.60" from="617351094#5" to="28947149#2" type="moto__motorcycle"/>
    <trip id="moto_183" depart="54.90" from="683852462#0" to="1297912943#1" type="moto__motorcycle"/>
    <trip id="moto_184" depart="55.20" from="946030655#13" to="11711910" type="moto__motorcycle"/>
    <trip id="moto_185" depart="55.50" from="1136650312#1" to="1158120932#3" type="moto__motorcycle"/>
    <trip id="moto_186" depart="55.80" from="1012665674" to="1422989226" type="moto__motorcycle"/>
    <trip id="moto_187" depart="56.10" from="600083180" to="-29313248#1" type="moto__motorcycle"/>
    <trip id="moto_188" depart="56.40" from="29113046#0" to="-897914267#5" type="moto__motorcycle"/>
    <trip id="moto_189" depart="56.70" from="-1177168458#5" to="1262811878#0" type="moto__motorcycle"/>
    <trip id="moto_190" depart="57.00" from="848915394#6" to="707450932#1" type="moto__motorcycle"/>
    <trip id="moto_191" depart="57.30" from="932707184#0" to="-816208527#3" type="moto__motorcycle"/>
    <trip id="moto_192" depart="57.60" from="-546999873#4" to="-29313247#3" type="moto__motorcycle"/>
    <trip id="moto_193" depart="57.90" from="37891457#3" to="-1290408812#0" type="moto__motorcycle"/>
    <trip id="moto_194" depart="58.20" from="946030655#4" to="964868047#4" type="moto__motorcycle"/>
    <trip id="moto_195" depart="58.50" from="675260216#0" to="758270207#0" type="moto__motorcycle"/>
    <trip id="moto_196" depart="58.80" from="-890573868" to="-11706783#3" type="moto__motorcycle"/>
    <trip id="moto_197" depart="59.10" from="-600000320#6" to="600062986#3" type="moto__motorcycle"/>
    <trip id="moto_198" depart="59.40" from="708576350#0" to="-11839274#2" type="moto__motorcycle"/>
    <trip id="moto_199" depart="59.70" from="-758270207#0" to="711101759#3" type="moto__motorcycle"/>
    <trip id="moto_200" depart="60.00" from="-163711331#1" to="1216878745#0" type="moto__motorcycle"/>
    <trip id="moto_201" depart="60.30" from="1344929479#8" to="-546999873#3" type="moto__motorcycle"/>
    <trip id="moto_202" depart="60.60" from="36869877#2" to="1204913756#2" type="moto__motorcycle"/>
    <trip id="moto_203" depart="60.90" from="-28947134#1" to="9964551#0" type="moto__motorcycle"/>
    <trip id="moto_204" depart="61.20" from="-28958235#5" to="596721713#8" type="moto__motorcycle"/>
    <trip id="moto_205" depart="61.50" from="11838452#1" to="-1276334499#4" type="moto__motorcycle"/>
    <trip id="moto_206" depart="61.80" from="1053649162#0" to="-1262817316#1" type="moto__motorcycle"/>
    <trip id="moto_207" depart="62.10" from="-509634206#3" to="179990709#1" type="moto__motorcycle"/>
    <trip id="moto_208" depart="62.40" from="-593642479#2" to="1186000755#1" type="moto__motorcycle"/>
    <trip id="moto_209" depart="62.70" from="25953590#12" to="25953590#3" type="moto__motorcycle"/>
    <trip id="moto_210" depart="63.00" from="136257252#5" to="1216878745#0" type="moto__motorcycle"/>
    <trip id="moto_211" depart="63.30" from="-708924032#6" to="1297912939#1" type="moto__motorcycle"/>
    <trip id="moto_212" depart="63.60" from="-1180597073#21" to="-1266983913#1" type="moto__motorcycle"/>
    <trip id="moto_213" depart="63.90" from="-37972515#4" to="961861920#0" type="moto__motorcycle"/>
    <trip id="moto_214" depart="64.20" from="237322638#2" to="1242184418#5" type="moto__motorcycle"/>
    <trip id="moto_215" depart="64.50" from="708891236" to="-25953591#2" type="moto__motorcycle"/>
    <trip id="moto_216" depart="64.80" from="875229038#3" to="1417471101" type="moto__motorcycle"/>
    <trip id="moto_217" depart="65.10" from="-946867352#4" to="37972515#2" type="moto__motorcycle"/>
    <trip id="moto_218" depart="65.40" from="-1184119038#2" to="-1180597073#10" type="moto__motorcycle"/>
    <trip id="moto_219" depart="65.70" from="-219978239#1" to="25953656#3" type="moto__motorcycle"/>
    <trip id="moto_220" depart="66.00" from="37967009#2" to="28947038#1" type="moto__motorcycle"/>
    <trip id="moto_221" depart="66.30" from="-946030632#2" to="-675260247" type="moto__motorcycle"/>
    <trip id="moto_222" depart="66.60" from="723144694#0" to="-25953656#1" type="moto__motorcycle"/>
    <trip id="moto_223" depart="66.90" from="838425492#8" to="-675260212#6" type="moto__motorcycle"/>
    <trip id="moto_224" depart="67.20" from="-179996742#1" to="-11839377#3" type="moto__motorcycle"/>
    <trip id="moto_225" depart="67.50" from="-180083164#1" to="180083167#0" type="moto__motorcycle"/>
    <trip id="moto_226" depart="67.80" from="-180083164#8" to="-25953591#0" type="moto__motorcycle"/>
    <trip id="moto_227" depart="68.10" from="402400378#10" to="-617351094#2" type="moto__motorcycle"/>
    <trip id="moto_228" depart="68.40" from="839668470#0" to="-1180597073#0" type="moto__motorcycle"/>
    <trip id="moto_229" depart="68.70" from="-11008124#2" to="-37967009#1" type="moto__motorcycle"/>
    <trip id="moto_230" depart="69.00" from="-675260212#9" to="1262818191#1" type="moto__motorcycle"/>
    <trip id="moto_231" depart="69.30" from="-11706783#1" to="-11706783#5" type="moto__motorcycle"/>
    <trip id="moto_232" depart="69.60" from="200537633#1" to="599146734#5" type="moto__motorcycle"/>
    <trip id="moto_233" depart="69.90" from="593642479#5" to="1257110006#2" type="moto__motorcycle"/>
    <trip id="moto_234" depart="70.20" from="-220360797#3" to="180083167#0" type="moto__motorcycle"/>
    <trip id="moto_235" depart="70.50" from="37861980#1" to="35972593#1" type="moto__motorcycle"/>
    <trip id="moto_236" depart="70.80" from="597117003#2" to="37862483#5" type="moto__motorcycle"/>
    <trip id="moto_237" depart="71.10" from="1012665682" to="707066366#9" type="moto__motorcycle"/>
    <trip id="moto_238" depart="71.40" from="707362060" to="857047108#7" type="moto__motorcycle"/>
    <trip id="moto_239" depart="71.70" from="179990709#1" to="136161771#1" type="moto__motorcycle"/>
    <trip id="moto_240" depart="72.00" from="163711331#6" to="-178093643#1" type="moto__motorcycle"/>
    <trip id="moto_241" depart="72.30" from="251780514#5" to="1233979451" type="moto__motorcycle"/>
    <trip id="moto_242" depart="72.60" from="-28958235#9" to="1186000755#1" type="moto__motorcycle"/>
    <trip id="moto_243" depart="72.90" from="-570570858#0" to="136557830#0" type="moto__motorcycle"/>
    <trip id="moto_244" depart="73.20" from="-1390903369#2" to="-596721713#4" type="moto__motorcycle"/>
    <trip id="moto_245" depart="73.50" from="236355199#1" to="-25953590#7" type="moto__motorcycle"/>
    <trip id="moto_246" depart="73.80" from="1180597073#15" to="148202928#3" type="moto__motorcycle"/>
    <trip id="moto_247" depart="74.10" from="29101513#1" to="1390903369#2" type="moto__motorcycle"/>
    <trip id="moto_248" depart="74.40" from="25953656#3" to="-816208527#0" type="moto__motorcycle"/>
    <trip id="moto_249" depart="74.70" from="774597880#5" to="711106356#1" type="moto__motorcycle"/>
    <trip id="moto_250" depart="75.00" from="1416901380#0" to="163711328#4" type="moto__motorcycle"/>
    <trip id="moto_251" depart="75.30" from="-37891457#11" to="560585021#0" type="moto__motorcycle"/>
    <trip id="moto_252" depart="75.60" from="838425493#10" to="200537620#6" type="moto__motorcycle"/>
    <trip id="moto_253" depart="75.90" from="-675260213" to="35972593#2" type="moto__motorcycle"/>
    <trip id="moto_254" depart="76.20" from="-180083164#7" to="710072101" type="moto__motorcycle"/>
    <trip id="moto_255" depart="76.50" from="675260240#2" to="37891457#11" type="moto__motorcycle"/>
    <trip id="moto_256" depart="76.80" from="164211343" to="1204912790#1" type="moto__motorcycle"/>
    <trip id="moto_257" depart="77.10" from="28958235#10" to="-1203850203#1" type="moto__motorcycle"/>
    <trip id="moto_258" depart="77.40" from="-194852588#6" to="136161769#1" type="moto__motorcycle"/>
    <trip id="moto_259" depart="77.70" from="-29113046#2" to="179996742#2" type="moto__motorcycle"/>
    <trip id="moto_260" depart="78.00" from="711031662#4" to="1328292399#3" type="moto__motorcycle"/>
    <trip id="moto_261" depart="78.30" from="946867352#5" to="-617351094#3" type="moto__motorcycle"/>
    <trip id="moto_262" depart="78.60" from="1216160206" to="-838425492#2" type="moto__motorcycle"/>
    <trip id="moto_263" depart="78.90" from="-838425493#14" to="1290403737" type="moto__motorcycle"/>
    <trip id="moto_264" depart="79.20" from="-163711328#4" to="-37891457#6" type="moto__motorcycle"/>
    <trip id="moto_265" depart="79.50" from="1180597073#29" to="-920692173#3" type="moto__motorcycle"/>
    <trip id="moto_266" depart="79.80" from="29313247#5" to="178091734#1" type="moto__motorcycle"/>
    <trip id="moto_267" depart="80.10" from="711031662#0" to="-1413200272#1" type="moto__motorcycle"/>
    <trip id="moto_268" depart="80.40" from="-707066366#4" to="1240127122#0" type="moto__motorcycle"/>
    <trip id="moto_269" depart="80.70" from="-148202928#3" to="675260226#2" type="moto__motorcycle"/>
    <trip id="moto_270" depart="81.00" from="-1395144950#8" to="600131703#0" type="moto__motorcycle"/>
    <trip id="moto_271" depart="81.30" from="-11007689#2" to="-11706783#1" type="moto__motorcycle"/>
    <trip id="moto_272" depart="81.60" from="-11706783#6" to="-617351094#5" type="moto__motorcycle"/>
    <trip id="moto_273" depart="81.90" from="-178093643#2" to="-675260242#1" type="moto__motorcycle"/>
    <trip id="moto_274" depart="82.20" from="1203850203#0" to="477417897#3" type="moto__motorcycle"/>
    <trip id="moto_275" depart="82.50" from="1240127122#6" to="-774597880#5" type="moto__motorcycle"/>
    <trip id="moto_276" depart="82.80" from="163711331#2" to="219978239#2" type="moto__motorcycle"/>
    <trip id="moto_277" depart="83.10" from="236355199#0" to="178091760#1" type="moto__motorcycle"/>
    <trip id="moto_278" depart="83.40" from="1246265593#1" to="707066366#9" type="moto__motorcycle"/>
    <trip id="moto_279" depart="83.70" from="-1203850591#2" to="596721713#10" type="moto__motorcycle"/>
    <trip id="moto_280" depart="84.00" from="708581285" to="-1231370732#1" type="moto__motorcycle"/>
    <trip id="moto_281" depart="84.30" from="-28924688#6" to="-1243070839#3" type="moto__motorcycle"/>
    <trip id="moto_282" depart="84.60" from="-597117003#4" to="710203072#3" type="moto__motorcycle"/>
    <trip id="moto_283" depart="84.90" from="709673461#0" to="29113026#0" type="moto__motorcycle"/>
    <trip id="moto_284" depart="85.20" from="219863696#1" to="708924032#7" type="moto__motorcycle"/>
    <trip id="moto_285" depart="85.50" from="-711368897#0" to="-11707208" type="moto__motorcycle"/>
    <trip id="moto_286" depart="85.80" from="838425493#10" to="1276658084" type="moto__motorcycle"/>
    <trip id="moto_287" depart="86.10" from="1231374926" to="1413200272#1" type="moto__motorcycle"/>
    <trip id="moto_288" depart="86.40" from="-1276334499#1" to="-946867352#6" type="moto__motorcycle"/>
    <trip id="moto_289" depart="86.70" from="37972515#22" to="-29113026#1" type="moto__motorcycle"/>