<?xml version="1.0" ?>
<additional>
    <poi id="depot_001" type="depot" color="255,0,0" lane="-28958235#6_0" pos="10.0" width="5.0" height="5.0"/>
    <poi id="bin_000" type="trash_bin" color="0,255,0" lane="-1191172261#1_0" pos="112.22" width="2.0" height="2.0"/>
    <poi id="bin_001" type="trash_bin" color="0,255,0" lane="1204912791#3_0" pos="1.89" width="2.0" height="2.0"/>
    <poi id="bin_002" type="trash_bin" color="0,255,0" lane="1158120933#3_0" pos="36.5" width="2.0" height="2.0"/>
    <poi id="bin_003" type="trash_bin" color="0,255,0" lane="-945322274_0" pos="7.63" width="2.0" height="2.0"/>
    <poi id="bin_004" type="trash_bin" color="0,255,0" lane="-509634206#1_0" pos="46.54" width="2.0" height="2.0"/>
    <poi id="bin_005" type="trash_bin" color="0,255,0" lane="-28947038#2_0" pos="5.9" width="2.0" height="2.0"/>
    <poi id="bin_006" type="trash_bin" color="0,255,0" lane="708924032#8_0" pos="3.81" width="2.0" height="2.0"/>
    <poi id="bin_007" type="trash_bin" color="0,255,0" lane="-219978239#0_0" pos="21.11" width="2.0" height="2.0"/>
    <poi id="bin_008" type="trash_bin" color="0,255,0" lane="839881654#2_0" pos="7.96" width="2.0" height="2.0"/>
    <poi id="bin_009" type="trash_bin" color="0,255,0" lane="29313247#4_0" pos="24.53" width="2.0" height="2.0"/>
    <poi id="bin_010" type="trash_bin" color="0,255,0" lane="-1216451373#1_0" pos="5.02" width="2.0" height="2.0"/>
    <poi id="bin_011" type="trash_bin" color="0,255,0" lane="-1214455905#1_0" pos="13.34" width="2.0" height="2.0"/>
    <poi id="bin_012" type="trash_bin" color="0,255,0" lane="-25953589#2_0" pos="71.81" width="2.0" height="2.0"/>
    <poi id="bin_013" type="trash_bin" color="0,255,0" lane="-871891997#2_0" pos="17.44" width="2.0" height="2.0"/>
    <poi id="bin_014" type="trash_bin" color="0,255,0" lane="-949108818#3_0" pos="13.66" width="2.0" height="2.0"/>
    <poi id="bin_015" type="trash_bin" color="0,255,0" lane="675318621#0_0" pos="20.69" width="2.0" height="2.0"/>
    <poi id="bin_016" type="trash_bin" color="0,255,0" lane="882269315#1_0" pos="4.69" width="2.0" height="2.0"/>
    <poi id="bin_017" type="trash_bin" color="0,255,0" lane="-1203850203#1_0" pos="-1.56" width="2.0" height="2.0"/>
    <poi id="bin_018" type="trash_bin" color="0,255,0" lane="711083507#2_0" pos="8.45" width="2.0" height="2.0"/>
    <poi id="bin_019" type="trash_bin" color="0,255,0" lane="-711362081#1_0" pos="20.34" width="2.0" height="2.0"/>
    <poi id="bin_020" type="trash_bin" color="0,255,0" lane="708924032#7_0" pos="11.81" width="2.0" height="2.0"/>
    <poi id="bin_021" type="trash_bin" color="0,255,0" lane="29113046#0_0" pos="4.64" width="2.0" height="2.0"/>
    <poi id="bin_022" type="trash_bin" color="0,255,0" lane="-897914267#5_0" pos="20.56" width="2.0" height="2.0"/>
    <poi id="bin_023" type="trash_bin" color="0,255,0" lane="402400378#10_0" pos="31.69" width="2.0" height="2.0"/>
    <poi id="bin_024" type="trash_bin" color="0,255,0" lane="838425496#4_0" pos="14.98" width="2.0" height="2.0"/>
    <poi id="bin_025" type="trash_bin" color="0,255,0" lane="1215943717#1_0" pos="12.46" width="2.0" height="2.0"/>
    <poi id="bin_026" type="trash_bin" color="0,255,0" lane="-11706783#3_0" pos="21.13" width="2.0" height="2.0"/>
    <poi id="bin_027" type="trash_bin" color="0,255,0" lane="-600000320#4_0" pos="5.95" width="2.0" height="2.0"/>
    <poi id="bin_028" type="trash_bin" color="0,255,0" lane="29313248#1_0" pos="11.37" width="2.0" height="2.0"/>
    <poi id="bin_029" type="trash_bin" color="0,255,0" lane="1488544882#12_0" pos="17.46" width="2.0" height="2.0"/>
    <poi id="bin_030" type="trash_bin" color="0,255,0" lane="1215943717#0_0" pos="12.75" width="2.0" height="2.0"/>
    <poi id="bin_031" type="trash_bin" color="0,255,0" lane="-597117003#3_0" pos="7.95" width="2.0" height="2.0"/>
    <poi id="bin_032" type="trash_bin" color="0,255,0" lane="-857047108#0_0" pos="16.39" width="2.0" height="2.0"/>
    <poi id="bin_033" type="trash_bin" color="0,255,0" lane="1451562629#2_0" pos="2.38" width="2.0" height="2.0"/>
    <poi id="bin_034" type="trash_bin" color="0,255,0" lane="-28947038#1_0" pos="18.09" width="2.0" height="2.0"/>
    <poi id="bin_035" type="trash_bin" color="0,255,0" lane="-251784279#2_0" pos="3.05" width="2.0" height="2.0"/>
    <poi id="bin_036" type="trash_bin" color="0,255,0" lane="219976146#1_0" pos="26.07" width="2.0" height="2.0"/>
    <poi id="bin_037" type="trash_bin" color="0,255,0" lane="-25953590#9_0" pos="5.21" width="2.0" height="2.0"/>
    <poi id="bin_038" type="trash_bin" color="0,255,0" lane="179996739#1_0" pos="62.39" width="2.0" height="2.0"/>
    <poi id="bin_039" type="trash_bin" color="0,255,0" lane="1488544882#5_0" pos="7.75" width="2.0" height="2.0"/>
    <poi id="bin_040" type="trash_bin" color="0,255,0" lane="885163365_0" pos="-3.46" width="2.0" height="2.0"/>
    <poi id="bin_041" type="trash_bin" color="0,255,0" lane="1184119038#1_0" pos="31.79" width="2.0" height="2.0"/>
    <poi id="bin_042" type="trash_bin" color="0,255,0" lane="-1266983913#1_0" pos="15.67" width="2.0" height="2.0"/>
    <poi id="bin_043" type="trash_bin" color="0,255,0" lane="570570857#3_0" pos="32.4" width="2.0" height="2.0"/>
    <poi id="bin_044" type="trash_bin" color="0,255,0" lane="708576351#3_0" pos="24.28" width="2.0" height="2.0"/>
    <poi id="bin_045" type="trash_bin" color="0,255,0" lane="-33407729_0" pos="13.72" width="2.0" height="2.0"/>
    <poi id="bin_046" type="trash_bin" color="0,255,0" lane="218427624#2_0" pos="83.93" width="2.0" height="2.0"/>
    <poi id="bin_047" type="trash_bin" color="0,255,0" lane="-180083173#1_0" pos="21.2" width="2.0" height="2.0"/>
    <poi id="bin_048" type="trash_bin" color="0,255,0" lane="709673461#0_0" pos="5.97" width="2.0" height="2.0"/>
    <poi id="bin_049" type="trash_bin" color="0,255,0" lane="1257401279#0_0" pos="15.53" width="2.0" height="2.0"/>
</additional>
