<?xml version="1.0" encoding="UTF-8"?>

<!-- generated on 2026-03-24 19:17:06.540362 by Eclipse SUMO randomTrips.py v1_26_0+0000-fa7df22d7f1
<configuration>
    <net-file value="D:\DO AN\GreenVein_Project\envs\map.net.xml"/>
    <route-file value="D:\DO AN\GreenVein_Project\envs\cars.rou.xml"/>
    <prefix value="car_"/>
    <vehicle-class value="passenger"/>
    <allow-fringe value="True"/>
    <random value="True"/>
    <period value="1.0"/>
</configuration>
-->

<!-- generated on 2026-03-24T19:17:05.135494+07:00 by Eclipse SUMO duarouter 1.26.0
<duarouterConfiguration xmlns:xsi="http://www.w3.org/2001/XMLSchema-instance" xsi:noNamespaceSchemaLocation="http://sumo.dlr.de/xsd/duarouterConfiguration.xsd">

    <input>
        <net-file value="D:\DO AN\GreenVein_Project\envs\map.net.xml"/>
        <route-files value="trips.trips.xml"/>
    </input>

    <output>
        <output-file value="D:\DO AN\GreenVein_Project\envs\cars.rou.xml"/>
        <alternatives-output value="NUL"/>
    </output>

    <time>
        <begin value="0"/>
        <end value="3600.0"/>
    </time>

    <report>
        <no-warnings value="true"/>
        <ignore-errors value="true"/>
        <no-step-log value="true"/>
    </report>

</duarouterConfiguration>
-->

<routes xmlns:xsi="http://www.w3.org/2001/XMLSchema-instance" xsi:noNamespaceSchemaLocation="http://sumo.dlr.de/xsd/routes_file.xsd">
    <vType id="car__passenger" vClass="passenger"/>
    <vehicle id="car_0" type="car__passenger" depart="0.00">
        <route edges="35978173 178098601 708658353#0 708658353#1 1204912790#0 1204912790#1 684766065#0 684766065#1 946030657 684766067#0 708573719#1 708576351#0 708576351#1 708576351#2 708576351#3 708576350#0 708576345 708581287 178091734#0 178091734#1 1185723928#0 1185723928#1 1185723929 708584851#0 708584851#1 708584851#2 -702927010#3 -702927010#2 -702927010#1 -702927010#0 -711021337 -37862483#5 -37862483#4 -37862483#3 -37862483#2 -37862483#1 -37862483#0 -838425493#14 -838425493#13 -838425493#12 -838425493#11 -838425493#10 -838425493#9 -838425493#8 -838425493#7 -838425493#6 -838425493#5 -838425493#4 -838425493#3 -838425493#2 -838425493#1 838425492#1 838425492#2 838425492#3 -838425492#3"/>
    </vehicle>
    <vehicle id="car_1" type="car__passenger" depart="1.00">
        <route edges="1262817316#2 1262817316#3 1262817316#4 1262817316#5 1262818189 1262818190#0 1262818190#1 710298222 687098302#0 687098302#1 1335897899#0 954341842#0 954341842#1 711101761 882269315#0 882269315#1 882269315#2 1266448183#0 1266448183#1 711492060#1 711492060#2 1204846893#1 1266014434#0 -11711997#12 -11711997#10 -11711997#9 -11711997#8 -11711997#6 -11711997#5 -11711997#4 -11711997#3 38028943#0 38028943#1 -25953590#12 -25953590#11 -25953590#9 -25953590#8 -25953590#7 -25953590#6 -25953590#5 -25953590#4 -25953590#3 -25953590#2 -25953590#1 -25953590#0 25953590#0 25953590#1 25953590#2 25953590#3 25953590#4 25953590#5 25953590#6 25953590#7 25953590#8"/>
    </vehicle>
    <vehicle id="car_2" type="car__passenger" depart="2.00">
        <route edges="711122630#2 237322638#2 237322638#3 237322638#5 237322638#6 237322638#7 709301078#1 1349903768#0 962493748#0 -711362081#2 -711362081#1 -711362081#0 -711368897#1 -711368897#0 -711362080 -709017803#2 -709017803#1 -709017803#0 707072728#0 707072728#1 707072728#2 -707066366#11 -707066366#10 -707066366#9 -707066366#8 -707066366#7 -707066366#5 -707066366#4 -707066366#3 -707066366#2 -707066366#1 -707066366#0 707072726 711401502 708570281#0 708573719#1 708576351#0 708576351#1 708576351#2 708576351#3 708576350#0 708576345 708581287 178091734#0 178091734#1 1185723928#0 1185723928#1 1185723929 708584851#0 708584851#1 708584851#2 -702927010#3 -702927010#2 -702927010#1 -702927010#0 -711021337 -37862483#5 -37862483#4 -37862483#3 -37862483#2 -37862483#1 -37862483#0 -838425493#14 -838425493#13 -838425493#12 -838425493#11 -838425493#10 -838425493#9 -838425493#8 -838425493#7 -838425493#6 -838425493#5 -838425493#4 -838425493#3 -838425493#2 -838425493#1 -617351094#10 -617351094#9 -617351094#8 -617351094#7 -617351094#6 -617351094#5 -617351094#3 -617351094#2 -617351094#1 -617351094#0 -1416901380#2 -1416901380#1"/>
    </vehicle>
    <vehicle id="car_3" type="car__passenger" depart="3.00">
        <route edges="1262817316#2 1262817316#3 1262817316#4 1262817316#5 1262818189 1262818190#0 1262818190#1 710298222 687098302#0 687098302#1 1335897899#0 710298224#0 710298224#1 -708891237#4 -708891237#3 -708891237#2 -708891237#1 -708891237#0 885163364 1191703477#0 1191703477#1 708891236 708944664 708903075#0 708903075#1 708914976#1 1240127122#0 1240127122#1 1240127122#2 1240127122#5 1240127122#6 1240127122#7 1240127122#11 1240127122#12 -219976145 -11839274#5 -1194666255#1 -1194666255#0 -675260246"/>
    </vehicle>
    <vehicle id="car_4" type="car__passenger" depart="4.00">
        <route edges="11838452#3 -11838452#4 -11838452#2 -11838452#1 967878667#0 1190109720 37891457#0 37891457#1 37891457#2 37891457#3 37891457#4 37891457#6 37891457#7 37891457#8 37891457#9 37891457#10 37891457#11 708891235#0 708891235#1 708903075#0 708903075#1 506383095#1 506383095#3 711109718#1 600037940#0 600037940#1 882269315#2 1266448183#0 1266448183#1 711492060#1 711492060#2 1204846893#1 1266014434#0 -11711997#12 -11711997#10 -11711997#9 -11711997#8 -11711997#6 -11711997#5 -11711997#4 -11711997#3 -11711997#1 -11711997#0 -932707184#4 -932707184#3 -932707184#2 11711910 29046492#1 29046492#2 29046492#3 29046492#4 29046492#5 29046492#6 29046492#7 29046492#8 29046492#9 29046492#10 29046492#11 29046492#12 600582044#1 600582044#2 -29046496#5 -29046496#4 -29046496#3 -29046496#1"/>
    </vehicle>
    <vehicle id="car_5" type="car__passenger" depart="5.00">
        <route edges="964868042#1 964868042#2 707087632#0 707087632#1 707087632#3 707087632#4 707087632#5 707087632#6 37906058#1 37906058#2 37906058#3 37906058#4 964868045#0 1190109720 37891457#0 37891457#1 37891457#2 37891457#3 37891457#4 37891457#6 37891457#7 37891457#8 37891457#9 37891457#10 37891457#11 708891235#0 708891235#1 708903075#0 708903075#1 708914976#1 1240127122#0 1240127122#1 1240127122#2 1240127122#5 1240127122#6 1240127122#7 1240127122#11 1240127122#12 179990709#0 179990709#1 179990709#2 179990709#3 1266449985#1 707362060 884156407#0 884156407#1 962493747#1 962493747#2 512285541#1 512285541#2 -1262812937#7 -1262812937#6 -1262812937#4 -1262812937#3 -1262812937#1 -1262812937#0 -1262812936 -37972515#23 -37972515#22 -37972515#20 -37972515#18 -37972515#17 -37972515#15 -37972515#14 -37972515#13 -37972515#10 -37972515#9 -37972515#8 -37972515#7 -37972515#5 -37972515#4 -37972515#3 -37972515#2 -37972515#1 -37972515#0 -946030632#2 1204912790#0 1204912790#1 1204912791#1 1204912791#2"/>
    </vehicle>
    <vehicle id="car_6" type="car__passenger" depart="6.00">
        <route edges="945322256#2 945322256#3 945322256#4 945322256#5 945322256#6 702919616#0 702919616#1 702919616#2 702919616#3 600037925#0 600037925#1 962177670 -947077275 1136650312#1 1216159883#1 180082716#0 180082716#1 180082716#3"/>
    </vehicle>
    <vehicle id="car_7" type="car__passenger" depart="7.00">
        <route edges="964868047#2 964868047#4 36869877#0 36869877#1 36869877#2 36869877#3 36869877#4 36869877#5 36869877#6 36869877#7 36869877#8 402400378#1 402400378#2 402400378#3 402400378#4 402400378#5 402400378#6 402400378#7 402400378#8 402400378#9 402400378#10 710307672#0 710307672#1 710307672#2 1392245988#0 1392245988#1 687098302#0 687098302#1 1335897899#0 711106354#1 506383096#0 506383096#2 506383096#3 1242184420#0 1242184420#1 200537633#1 200537633#2 200537633#3 1214455905#0 1214455905#1 1214455905#2 1422989226 758270207#0"/>
    </vehicle>
    <vehicle id="car_8" type="car__passenger" depart="8.00">
        <route edges="708649103#2 1393164065 616838547 954882991 1414817300#1 1185923380#0 1185923380#1 1185923380#2 -537687400 1012665676#0 1012665676#1 35972593#0 35972593#1 35972593#2 35972593#3 35972593#4 35972593#5 961861920#0 709673460 1014224394 709673461#0 709673461#1 709673461#2 709673461#4 848915391 1012665682 1158120933#0 1158120933#2 1158120933#3 1158120933#4 1158120933#5 1158120939#1 857047108#0 857047108#1 857047108#3 857047108#4 857047108#5 857047108#6 857047108#7 857047108#8 857047108#9 857047108#10 857047108#11 1395144950#1 1395144950#2 1395144950#5 1395144950#6 1395144950#7 1395144950#8 1395144950#9 1395144950#10 595338113#0 595338113#1 1186000755#1 164211258#0 164211258#1 1185723930#0 1185723930#1 708581285 708576344 708576347#1 708576347#2 708576347#3 708576347#4 708614256#0 707072725#1 707072725#2 707066366#0 707066366#1 707066366#2 707066366#3 707066366#4 707066366#5 707066366#7 707066366#8 707066366#9 707066366#10 707066366#11 707072727#0 707072727#1 709017803#0 709017803#1 709017803#2 711362080 711368897#0 711368897#1 711362081#0 711362081#1 711362081#2 1266983913#0 1266983913#1 33407729 1344929479#0 1344929479#2 1344929479#3 1344929479#5 1344929479#7 1344929479#8 1344929479#9 707066367#0 1297912942#1 707087634#0 707087634#1 1417471101 707087633 964868044#0 964868044#1 964868044#2 707087632#0 707087632#1 707087632#3 707087632#4 707087632#5 707087632#6 37906058#1 37906058#2 37906058#3 37906058#4 964868045#0 701841904#1 701841904#2 701841904#3 701841904#4 701841904#5 701841904#6 701841904#7 701841904#8 701841904#9 701841904#10 701841904#11 1203850591#0 1203850591#2 1203850591#3 -1203850591#3"/>
    </vehicle>
    <vehicle id="car_9" type="car__passenger" depart="9.00">
        <route edges="593642479#5 593642479#6 593642479#9 816208527#0 816208527#1 816208527#2 816208527#3 816208527#4 -816208527#4 -816208527#3 -816208527#2 -816208527#1 -816208527#0 -593642479#9 -593642479#6 -593642479#5 -593642479#4 -593642479#2 -593642479#1 -838425492#11 -838425492#10 -838425492#8 -838425492#7 -838425492#6 -838425492#5 -838425492#4 -838425492#3 -838425492#2 -838425492#1 838425493#1 838425493#2 838425493#3 838425493#4 838425493#5 838425493#6 838425493#7 838425493#8 838425493#9 838425493#10 838425493#11 838425493#12 838425493#13 838425493#14 37862483#0 37862483#1 37862483#2 37862483#3 37862483#4 37862483#5 702927009 702927010#0 702927010#1 702927010#2 702927010#3 1186000755#1 164211258#0 164211258#1 1185723930#0 1185723930#1 708581285 708576344 708576347#1 708576347#2 708576347#3 708576347#4 708614256#0 707072725#1 707072725#2 707066366#0 707066366#1 707066366#2 707066366#3 707066366#4 707066366#5 707066366#7 707066366#8 707066366#9 707066366#10 707066366#11 707072727#0 707072727#1 709017803#0 709017803#1 709017803#2 711362080 711368897#0 711368897#1 711362081#0 711362081#1 711362081#2 709017800#0 709017800#1 1266449984#0 1266449984#1 946867355#0 946867355#1 946867355#2 946867355#3 1432500749#0 1432500749#1 1432500749#2 207272547#1 207272547#2 -194852588#8 -194852588#7 -194852588#6 -194852588#4 -708918910#2"/>
    </vehicle>
    <vehicle id="car_10" type="car__passenger" depart="10.00">
        <route edges="1262812937#7 709301078#1 -1257401278#3 -1257401278#2 -1257401278#1 -1257401278#0 1257401278#0 1257401278#1 1257401278#2 1257401278#3"/>
    </vehicle>
    <vehicle id="car_11" type="car__passenger" depart="11.00">
        <route edges="675260213 -758646984#1 -758646984#0 920692173#1 920692173#2 920692173#3 848915394#4 848915394#5 848915394#6 848915394#7 848915395#0 848915395#1 848915395#2 848915395#3 709673459 1447195328 177433576 961861921 708649102 708649103#1 708649103#2 1393164065 616838547"/>
    </vehicle>
    <vehicle id="car_12" type="car__passenger" depart="12.00">
        <route edges="591296755 708649102 708649103#1 708649103#2 1393164065 616838547 954882991 1414817300#1 1185923380#0 1185923380#1 1185923380#2 -537687400 1012665676#0 1012665676#1 35972593#0 35972593#1 35972593#2 35972593#3 35972593#4 35972593#5 961861920#0 709673460 1014224394 709673461#0 709673461#1 709673461#2 709673461#4 848915391 1012665682 1158120933#0 1158120933#2 1158120933#3 1158120933#4 1158120933#5 1158120939#1 857047108#0 857047108#1 857047108#3 857047108#4 857047108#5 857047108#6 857047108#7 857047108#8 857047108#9 857047108#10 857047108#11 1395144950#1 1395144950#2 1395144950#5 1395144950#6 1395144950#7 1395144950#8 1395144950#9 1395144950#10 595338113#0 595338113#1 1186000755#1 164211258#0 164211258#1 1185723930#0 1185723930#1 708581285 708576344 708576347#1 708576347#2 708576347#3 708576347#4 708614256#0 707072725#1 707072725#2 707066366#0 707066366#1 707066366#2 707066366#3 707066366#4 707066366#5 707066366#7 707066366#8 707066366#9 707066366#10 707066366#11 707072727#0 707072727#1 709017803#0 709017803#1 709017803#2 711362080 711368897#0 711368897#1 711362081#0 711362081#1 711362081#2 709017800#0 709017800#1 1266449984#0 1266449984#1 946867355#0 946867355#1 946867355#2 946867355#3 1432500749#0 1432500749#1 1432500749#2 207272547#1 207272547#2 1240127122#5 1240127122#6 871891997#1 871891997#2 219976146#0"/>
    </vehicle>
    <vehicle id="car_13" type="car__passenger" depart="13.00">
        <route edges="397649390#3 397649390#4 1014224393 596710689#0 596710689#1 709673461#0 709673461#1 709673461#2 709673461#4 848915391 1012665682 1158120933#0 1158120933#2 1158120933#3 1158120933#4 1158120933#5 1158120939#1 857047108#0 857047108#1 857047108#3 857047108#4 857047108#5 857047108#6 857047108#7 857047108#8 857047108#9 857047108#10 857047108#11 1395144950#1 1395144950#2 1395144950#5 1395144950#6 1395144950#7 1395144950#8 1395144950#9 1395144950#10 595338113#0 595338113#1 1186000755#1 164211258#0 164211258#1 1185723930#0 1185723930#1 708581285 708576344 708576347#1 708576347#2 708576347#3 708576347#4 708614256#0 707072725#1 707072725#2 707066366#0 707066366#1 707066366#2 707066366#3 707066366#4 707066366#5 707066366#7 707066366#8 707066366#9 707066366#10 707066366#11 707072727#0 707072727#1 709017803#0 709017803#1 709017803#2 711362080 711368897#0 711368897#1 711362081#0 711362081#1 711362081#2 709017800#0 709017800#1 1266449984#0 1266449984#1 946867355#0 946867355#1 946867355#2 946867355#3 1432500749#0 1432500749#1 -28947149#4 -28947149#3 -28947149#2 -28947149#0 29113024#0 29113024#1 29113024#2 29113026#1 29113026#2 29113026#3 29113026#4 29113026#5 29113026#6 163711328#0 163711328#1 163711328#3 163711328#4 675260226#0"/>
    </vehicle>
    <vehicle id="car_14" type="car__passenger" depart="14.00">
        <route edges="593647269#1 675260242#0 675260242#1 675260242#2 136557777#0 136557777#1 -838425492#3 -838425492#2 -838425492#1 -617351094#10 -617351094#9 -617351094#8"/>
    </vehicle>
    <vehicle id="car_15" type="car__passenger" depart="15.00">
        <route edges="1231370731 1231374926 28947147#0 28947147#1 28947147#2 28947147#3 28947147#4 28947147#5 946867352#0 946867352#1 946867352#2 946867352#3 946867352#4 946867352#5 946867352#6 1266449985#1 707362060 884156407#0 884156407#1 1266983913#0 1266983913#1 33407729 1344929479#0 1344929479#2 1344929479#3 1344929479#5 1344929479#7 1344929479#8 1344929479#9 707066367#0 1297912942#1 707087634#0 707087634#1 1417471101 707087633"/>
    </vehicle>
    <vehicle id="car_16" type="car__passenger" depart="16.00">
        <route edges="-707066366#0 707072726 711401502 708570281#0 1333363797#0 1333363797#1 708658351#0 708658351#1 708658351#2 875229041 711404115 28103241#0 28103241#1 28103241#2 838425496#1 838425496#2 838425496#3 838425496#4 838425496#5 1266014435 1204846892#0 1204846892#1 808672175#1 808672175#2 808672175#3 808672175#4 882269316#0 882269316#1 1262818189 1262818190#0 1262818190#1 710298222 687098302#0 687098302#1 1335897899#0 954341842#0 954341842#1 711101761 882269315#0 882269315#1"/>
    </vehicle>
    <vehicle id="car_17" type="car__passenger" depart="17.00">
        <route edges="945322275#7 945322256#2 945322256#3 945322256#4 945322256#5 945322256#6 702919616#0 702919616#1 702919616#2 702919616#3 962177669#0 711064567 136557833#0 -25953552#1 1215943718#0 1215943718#1 1215943718#3 1215943718#4 1290403737 180082707#1"/>
    </vehicle>
    <vehicle id="car_18" type="car__passenger" depart="18.00">
        <route edges="11007689#5 11007689#6 11007689#7 11007689#8 399835468#2 1333362366#0 1333362366#1 711052546#0 711085008#1 962177670 -947077275 1136650312#1 -1216159884 -1136650311 -1414558554 -1216160206 -37861980#2 -37861980#0 -945322274 1185723923#0 1185723923#1 711031659 945322258 702927013 710286229 702927014#2 1186000755#1 164211258#0 164211258#1 1185723930#0 1185723930#1 708581285 708576344 708576347#1 708576347#2 708576347#3 708576347#4 708614256#0 707072725#1 707072725#2 707066366#0 707066366#1 707066366#2 707066366#3 707066366#4 707066366#5 707066366#7 707066366#8 707066366#9 707066366#10 707066366#11 707072727#0 707072727#1 709017803#0 709017803#1 709017803#2 711362080 711368897#0 711368897#1 711362081#0 711362081#1 711362081#2 1266983913#0 1266983913#1 33407729 1344929479#0 1344929479#2 1344929479#3 1344929479#5 1344929479#7 1344929479#8 1344929479#9 707066367#0 1297912942#1 707087634#0 707087634#1 1417471101 707087633 964868044#0 964868044#1 964868044#2 964868041#0 707450926 707450924 707450925#0 707450925#1"/>
    </vehicle>
    <vehicle id="car_19" type="car__passenger" depart="19.00">
        <route edges="871891997#2 -871891997#2 -871891997#1 1240127122#7 1240127122#11 1240127122#12 179990709#0 179990709#1 179990709#2 179990709#3 1266449985#1 707362060 884156407#0 884156407#1 -711362081#2 -711362081#1 -711362081#0 -711368897#1 -711368897#0 -711362080 -709017803#2 -709017803#1 -709017803#0 707072728#0 707072728#1 707072728#2 -707066366#11 -707066366#10 -707066366#9 -707066366#8 -707066366#7 -707066366#5 -707066366#4 -707066366#3 -707066366#2 -707066366#1 -707066366#0 707072726 711401502 708570281#0 708573719#1 708576351#0 708576351#1 708576351#2 708576351#3 708576350#0 708576345 708581287 178091734#0 178091734#1 1185723928#0 1185723928#1 1185723929 708584851#0 708584851#1 708584851#2 -702927010#3 -702927010#2 -702927010#1 -702927010#0 -711021337 477417897#1 477417897#2 477417897#3 477417897#4 -617351095#1 -617351095#0 -1276658084"/>
    </vehicle>
    <vehicle id="car_20" type="car__passenger" depart="20.00">
        <route edges="37972515#10 -37972515#10 -37972515#9 -37972515#8 -37972515#7 -37972515#5 -37972515#4 -37972515#3 -37972515#2 -37972515#1 -37972515#0 -946030632#2 1204912790#0 1204912790#1 684766065#0 684766065#1 946030657 684766067#0 708573719#1 708576351#0 708576351#1 708576351#2 708576351#3 708576350#0 708576345 708581287 178091734#0 178091734#1 1185723928#0 1185723928#1 1185723929 708584851#0 708584851#1 708584851#2 -595338113#1 -595338113#0 -1395144950#10 -1395144950#9 -1395144950#8 -1395144950#7 -1395144950#6 -1395144950#5 -1395144950#2 -1395144950#1 -857047108#11 -857047108#10 -857047108#9 -857047108#8 -857047108#7 -857047108#6 -857047108#5 -857047108#4 -857047108#3 -857047108#1 -857047108#0 -1158120939#1 -11007920 -11008124#2 -11008124#1 1158120933#5"/>
    </vehicle>
    <vehicle id="car_21" type="car__passenger" depart="21.00">
        <route edges="1107122303 1107122299 1107122301 1185723924#0 945322274 37861980#0 -37861980#0 -945322274 1185723923#0 1185723923#1 711031659 945322258 702927013 710286229 702927014#2 1186000755#1 164211258#0 164211258#1 1185723930#0 1185723930#1 708581285 708576344 708576347#1 708576347#2 708576347#3 708576347#4 708614256#0 707072725#1 707072725#2 707066366#0 707066366#1 707066366#2 707066366#3 707066366#4 707066366#5 707066366#7 707066366#8 707066366#9 707066366#10 707066366#11 707072727#0 707072727#1 709017803#0 709017803#1 709017803#2 711362080 711368897#0 711368897#1 711362081#0 711362081#1 711362081#2 709017800#0 709017800#1 1266449984#0 1266449984#1 946867355#0 946867355#1 946867355#2 946867355#3 1432500749#0 1432500749#1 1432500749#2 -1246265594#2 -1246265594#1 708918910#0 599990247#0 599990247#1 599990247#2 -708924032#7 -708924032#6 -708924032#5 -708924032#4 -708924032#3 -708924032#2"/>
    </vehicle>
    <vehicle id="car_22" type="car__passenger" depart="22.00">
        <route edges="29046492#7 29046492#8 29046492#9 29046492#10 29046492#11 29046492#12 29046492#14 29046492#15 29046492#16 29046492#17 945322258 702927013 710286229 702927014#2 -595338113#1 -595338113#0 -1395144950#10 -1395144950#9 -1395144950#8 -1395144950#7 -1395144950#6 -1395144950#5 675260210#1"/>
    </vehicle>
    <vehicle id="car_23" type="car__passenger" depart="23.00">
        <route edges="1262055583 -675260237#2 -675260237#1 1180597073#14 1180597073#15 1180597073#16 1180597073#17 1180597073#18 1180597073#19 1180597073#20 1180597073#21 1180597073#22 1180597073#23 1180597073#24 1180597073#25 1180597073#27 1180597073#28 1180597073#29 1180597073#31 1180597073#33 1180597073#34 1180597073#35 1180597073#37 1180597073#38 600037928 711106357#0 954341842#0 954341842#1 711101761 882269315#0 882269315#1 882269315#2 1266448183#0 1266448183#1 711492060#1 711492060#2 -675260216#0"/>
    </vehicle>
    <vehicle id="car_24" type="car__passenger" depart="24.00">
        <route edges="-1266691017 -37891457#3 -37891457#2 -37891457#1 -37891457#0 -1190109720 1297912943#1 1297912943#2 707450932#0 707450932#1 36182665#2 36182665#4 36182665#6 964868042#0 964868042#1 964868042#2 707087632#0 707087632#1 707087632#3"/>
    </vehicle>
    <vehicle id="car_25" type="car__passenger" depart="25.00">
        <route edges="-932707184#3 -932707184#2 -932707184#0 -1276334499#5 -1276334499#4 -1276334499#3 -1276334499#1 -1276334499#0 -707157542#4 -707157542#3 -707157542#2 402400378#1 402400378#2 402400378#3 402400378#4 402400378#5 402400378#6 402400378#7 402400378#8 402400378#9"/>
    </vehicle>
    <vehicle id="car_26" type="car__passenger" depart="26.00">
        <route edges="596721713#12 596721713#13 1395144950#5 1395144950#6 1395144950#7 1395144950#8 1395144950#9 1395144950#10 595338113#0 595338113#1 1186000755#1 164211258#0 164211258#1 1185723930#0 1185723930#1 708581285 708576344 708576347#1 708576347#2 708576347#3 708576347#4 708614256#0 1333363797#0 1333363797#1 708658351#0 708658351#1 708658351#2 875229041 711404115 28103241#0 28103241#1 28103241#2 838425496#1 838425496#2 838425496#3 838425496#4 838425496#5 1266014435 1204846892#0 1204846892#1 808672175#1 808672175#2 808672175#3 808672175#4 882269316#0 882269316#1 1262818189 1262818190#0 1262818190#1 710298222 687098302#0 687098302#1 1335897899#0 711106354#1 506383096#0 506383096#2 506383096#3 1242184420#0 1242184420#1 1242184419#0 1242184419#1 1204882028#0 1204882028#1 1204882029#0 599146734#1"/>
    </vehicle>
    <vehicle id="car_27" type="car__passenger" depart="27.00">
        <route edges="180083164#3 180083164#4 180083164#5 711122630#1 711122630#2 237322638#2 237322638#3 237322638#5 237322638#6 237322638#7 946030655#1 946030655#2 946030655#3 946030655#4 946030655#5 946030655#6 946030655#7 946030655#8"/>
    </vehicle>
    <vehicle id="car_28" type="car__passenger" depart="28.00">
        <route edges="11008124#1 11008124#2 11007920 1158120932#0 1158120932#1 1158120932#2 1158120932#3 1012665683 848915394#1 848915394#2 848915394#3 848915394#4 848915394#5 848915394#6 848915394#7 848915395#0 848915395#1 848915395#2 848915395#3 709673459 1447195328 709673460 1014224394 709673461#0 709673461#1 709673461#2 709673461#4 848915391 1012665682 1158120933#0 1158120933#2"/>
    </vehicle>
    <vehicle id="car_29" type="car__passenger" depart="29.00">
        <route edges="-25953593#0 -38028943#2 -38028943#1 -38028943#0 11711997#3 11711997#4 11711997#5 11711997#6 11711997#8 11711997#9 11711997#10 11711997#11 711083507#1 711083507#2 711083507#3 711083507#4 219977702 711404113 711404114 875229040 711404121#0 711404121#1 707072725#1 707072725#2 707066366#0 707066366#1 707066366#2 707066366#3 707066366#4 707066366#5 707066366#7 707066366#8 707066366#9 707066366#10 707066366#11 707072727#0 707072727#1 709017803#0 709017803#1 709017803#2 711362080 711368897#0 711368897#1 711362081#0 711362081#1 711362081#2 1266983913#0 1266983913#1 33407729 1344929479#0 1344929479#2 1344929479#3 1344929479#5 1344929479#7 1344929479#8 1344929479#9 707066367#0 1297912942#1 707087634#0 707087634#1 1417471101 707087633 964868044#0 964868044#1 964868044#2 707087632#0 707087632#1 707087632#3 707087632#4 707087632#5 707087632#6 36182665#2 36182665#4 36182665#6 -38137266#3 -38137266#2 -38137266#1 -38137266#0"/>
    </vehicle>
    <vehicle id="car_30" type="car__passenger" depart="30.00">
        <route edges="38137266#1 38137266#2 38137266#3 964868042#0 964868042#1 964868042#2 707087632#0 707087632#1 707087632#3 707087632#4 707087632#5 707087632#6 37906058#1 37906058#2 37906058#3 37906058#4 964868045#0 1190109720 37891457#0 37891457#1 37891457#2 37891457#3 37891457#4 37891457#6 37891457#7 37891457#8 37891457#9 37891457#10 37891457#11 708891235#0 708891235#1 708903075#0 708903075#1 708914976#1 1240127122#0 1240127122#1 1240127122#2 1240127122#5 1240127122#6 1240127122#7 1240127122#11 1240127122#12 179990709#0 179990709#1 179990709#2 179990709#3 1266449985#1 707362060 884156407#0 884156407#1 -711362081#2 -711362081#1 -711362081#0 -711368897#1 -711368897#0 -711362080 -709017803#2 -709017803#1 -709017803#0 707072728#0 707072728#1 707072728#2 -707066366#11 -707066366#10 -707066366#9 -707066366#8 -707066366#7 -707066366#5 -707066366#4 -707066366#3 -707066366#2 -707066366#1 -707066366#0 707072726 711401502 708570281#0 708573719#1 708576351#0 708576351#1 708576351#2 708576351#3 708576350#0 708576345 708581287 178091734#0 178091734#1 1185723928#0 1185723928#1 1185723929 708584851#0 708584851#1 708584851#2 -702927010#3 -702927010#2 -702927010#1 -702927010#0 -711021337 -37862483#5 -37862483#4 -37862483#3 -37862483#2 -37862483#1 -37862483#0 -838425493#14 -838425493#13 -838425493#12 -838425493#11 -838425493#10 -838425493#9 -838425493#8 -838425493#7 -838425493#6 -838425493#5 -838425493#4 -838425493#3 -838425493#2 -838425493#1 838425492#1 838425492#2 838425492#3 838425492#4 838425492#5 838425492#6"/>
    </vehicle>
    <vehicle id="car_31" type="car__passenger" depart="31.00">
        <route edges="1393164065 616838547 954882991 1414817300#1 1185923380#0 1185923380#1 1185923380#2 -537687400 1012665676#0 1012665676#1 35972593#0 35972593#1 35972593#2 35972593#3 35972593#4 35972593#5 961861920#0 709673460 1014224394 709673461#0 709673461#1 709673461#2 709673461#4 848915391 1012665682 1158120933#0 1158120933#2 1158120933#3 1158120933#4 1158120933#5 1158120939#1 857047108#0 857047108#1 857047108#3 857047108#4 857047108#5 857047108#6 857047108#7 857047108#8 857047108#9 857047108#10 857047108#11 1395144950#1 1395144950#2 1395144950#5 1395144950#6 1395144950#7 1395144950#8 1395144950#9 1395144950#10 595338113#0 595338113#1 164211021#1 702927012#1 702927012#2 711031661#2 1185723926 1185723924#0 945322274 37861980#0 37861980#1 1216160206 1414558554 687189723#1 687189723#2 687189723#3 687189723#4 687189723#5 -687189723#5 -687189723#4 -687189723#3"/>
    </vehicle>
    <vehicle id="car_32" type="car__passenger" depart="32.00">
        <route edges="946867355#1 946867355#2 946867355#3 1432500749#0 1432500749#1 1432500749#2 207272547#1 207272547#2 207272547#5 1216203224 1203979590#0 506383095#1 506383095#3 711109718#1 600037940#0 600037940#1 882269315#2 1266448183#0 1266448183#1 711492060#1 711492060#2 1184119038#1 219978460#0 600137625 -600137625"/>
    </vehicle>
    <vehicle id="car_33" type="car__passenger" depart="33.00">
        <route edges="675260212#4 675260212#5 675260212#6 675260212#7 675260212#8 675260212#9 -596721713#4 -596721713#3 -596721713#2 -596721713#1 -596721713#0 1310010137 1289567046 920692173#0 920692173#1 920692173#2 920692173#3 848915394#4 848915394#5 848915394#6 848915394#7 848915395#0 848915395#1 848915395#2 848915395#3 709673459 1447195328 177433576 961861921 708649102 708649103#1 708649103#2 1393164065 616838547 954882991 1123561349 1123561348 1123561350 -1243235553#0 -675318621#2"/>
    </vehicle>
    <vehicle id="car_34" type="car__passenger" depart="34.00">
        <route edges="-1180597073#29 -1180597073#28 -1180597073#27 1180597073#27 1180597073#28 1180597073#29 1180597073#31 1180597073#33 1180597073#34 1180597073#35 1180597073#37 1180597073#38 600037928 711106357#0 954341842#0 954341842#1 711101761 710298223 964868047#0 964868047#1 964868047#2 964868047#4 36869877#0 36869877#1 36869877#2 36869877#3 36869877#4 36869877#5 36869877#6 36869877#7 36869877#8 945322256#2 945322256#3 945322256#4 945322256#5 945322256#6 702919616#0"/>
    </vehicle>
    <vehicle id="car_35" type="car__passenger" depart="35.00">
        <route edges="-1180597073#12 1180597073#12 1180597073#13 1180597073#14 1180597073#15 1180597073#16 1180597073#17 1180597073#18 1180597073#19 1180597073#20 1180597073#21 1180597073#22 1180597073#23 1180597073#24 1180597073#25 1180597073#27 1180597073#28 1180597073#29 1180597073#31 1180597073#33 1180597073#34 1180597073#35 1180597073#37 1180597073#38 600037928 711106357#0 954341842#0 954341842#1 711101761 710298223 964868047#0 964868047#1 964868047#2 964868047#4 36869877#0 36869877#1 36869877#2 36869877#3 36869877#4 36869877#5 36869877#6 36869877#7 36869877#8 -1148119573#1 -722894415#5 -722894415#4 -722894415#3 -722894415#2 -722894415#1 -722894415#0"/>
    </vehicle>
    <vehicle id="car_36" type="car__passenger" depart="36.00">
        <route edges="596710689#1 709673461#0 709673461#1 709673461#2 709673461#4 848915391 1012665682 1158120933#0 1158120933#2 1158120933#3 1158120933#4 1158120933#5 1158120939#1 857047108#0 857047108#1 857047108#3 857047108#4 857047108#5 857047108#6 857047108#7 857047108#8 857047108#9 857047108#10 857047108#11 1395144950#1 1395144950#2 1395144950#5 1395144950#6 1395144950#7 1395144950#8 1395144950#9 1395144950#10 595338113#0 595338113#1 1186000755#1 164211258#0 164211258#1 1185723930#0"/>
    </vehicle>
    <vehicle id="car_37" type="car__passenger" depart="37.00">