<?xml version="1.0" encoding="UTF-8"?>

<!-- generated on 2026-03-26T22:56:37.746158+07:00 by Eclipse SUMO polyconvert 1.26.0
<polyconvertConfiguration xmlns:xsi="http://www.w3.org/2001/XMLSchema-instance" xsi:noNamespaceSchemaLocation="http://sumo.dlr.de/xsd/polyconvertConfiguration.xsd">

    <input>
        <net-file value="envs\map.net.xml"/>
        <osm-files value="data\dongda_map.osm"/>
        <osm.use-name value="true"/>
        <type-file value="C:\Program Files (x86)\Eclipse\Sumo\data\typemap\osmPolyconvert.typ.xml"/>
    </input>

    <output>
        <output-file value="envs\map.poly.xml"/>
    </output>

</polyconvertConfiguration>
-->

<additional xmlns:xsi="http://www.w3.org/2001/XMLSchema-instance" xsi:noNamespaceSchemaLocation="http://sumo.dlr.de/xsd/additional_file.xsd">
    <location netOffset="-583528.75,-2321445.33" convBoundary="-667.25,-4300.27,6514.45,6003.13" origBoundary="105.797403,20.952886,105.866355,21.045988" projParameter="+proj=utm +zone=48 +ellps=WGS84 +datum=WGS84 +units=m +no_defs"/>

    <poly id="3_Cá_Bống" type="amenity" color="237,199,199" fill="1" layer="-1.00" shape="1345.018325,1081.295795 1352.504545,1076.707447 1351.688800,1069.553089 1343.177864,1071.269486 1345.018325,1081.295795"/>
    <poly id="A" type="building" color="255,230,230" fill="1" layer="-1.00" shape="1909.218027,3531.230551 1912.702943,3540.645608 1909.766802,3541.715199 1911.109583,3545.330427 1914.253962,3544.184429 1917.462162,3552.845408 1934.329465,3546.678591 1933.468561,3544.338714 1936.977348,3543.061775 1937.817924,3545.313000 1945.689356,3542.431470 1944.674682,3539.681268 1948.058538,3538.447962 1949.216763,3541.575231 1965.636376,3535.572166 1962.294982,3526.545232 1966.834585,3524.886215 1965.553483,3521.404121 1961.555293,3522.866696 1958.039680,3513.362923 1909.218027,3531.230551"/>
    <poly id="A1" type="building" color="255,230,230" fill="1" layer="-1.00" shape="2190.816663,1774.448818 2179.915580,1751.978976 2176.935652,1753.413563 2172.978886,1744.748698 2169.469423,1738.023117 2172.438902,1736.599542 2161.095714,1713.186618 2170.993975,1708.445055 2182.583962,1732.368409 2185.084609,1731.163785 2188.388375,1737.467707 2192.129163,1745.688725 2189.649361,1746.882386 2200.714898,1769.707273 2190.816663,1774.448818"/>
    <poly id="A10" type="building" color="255,230,230" fill="1" layer="-1.00" shape="3725.768433,1114.581139 3737.328792,1114.132707 3736.970532,1105.165364 3739.559122,1105.068276 3738.788031,1085.650129 3724.639059,1086.195650 3725.768433,1114.581139"/>
    <poly id="A11" type="building" color="255,230,230" fill="1" layer="-1.00" shape="3664.705936,1102.395159 3660.953320,1102.475081 3661.043254,1107.124310 3664.775081,1107.044279 3664.875059,1111.759971 3718.866870,1110.626656 3718.149482,1077.019013 3664.188801,1078.141431 3664.705936,1102.395159"/>
    <poly id="A12" type="building" color="255,230,230" fill="1" layer="-1.00" shape="2901.133500,1579.119220 2874.035026,1587.578426 2868.052553,1588.764837 2862.171220,1588.490741 2855.697552,1586.199108 2849.251864,1582.524066 2845.196630,1578.861458 2842.912111,1574.466471 2829.657371,1529.050108 2839.701085,1526.379489 2852.913158,1570.002550 2854.396035,1572.655622 2858.467303,1575.233608 2862.498954,1577.435061 2865.945152,1578.294188 2869.210776,1577.901641 2897.208558,1568.395603 2901.133500,1579.119220"/>
    <poly id="A2" type="building" color="255,230,230" fill="1" layer="-1.00" shape="2123.763436,1717.011897 2155.573267,1701.779776 2161.095714,1713.186618 2170.993975,1708.445055 2159.671322,1685.076512 2126.819567,1700.801333 2119.199194,1685.055928 2110.332488,1689.293693 2123.763436,1717.011897"/>
    <poly id="A3" type="building" color="255,230,230" fill="1" layer="-1.00" shape="2556.423423,2162.030953 2609.633351,2186.701753 2614.225922,2176.918927 2561.015969,2152.248114 2556.423423,2162.030953"/>
    <poly id="A4" type="building" color="255,230,230" fill="1" layer="-1.00" shape="2645.526194,2253.796786 2654.895346,2248.842470 2625.631647,2194.100997 2616.252140,2199.044208 2645.526194,2253.796786"/>
    <poly id="A5" type="building" color="255,230,230" fill="1" layer="-1.00" shape="2197.658317,1663.157797 2208.650307,1657.957026 2171.036309,1579.376256 2160.054674,1584.577107 2197.658317,1663.157797"/>
    <poly id="A6" type="building" color="255,230,230" fill="1" layer="-1.00" shape="2685.500810,2231.280750 2694.869986,2226.326455 2665.606431,2171.573841 2656.237234,2176.528153 2685.500810,2231.280750"/>
    <poly id="A7" type="building" color="255,230,230" fill="1" layer="-1.00" shape="2636.428921,2116.224040 2690.812028,2141.144691 2695.468454,2131.085506 2641.085262,2106.175910 2636.428921,2116.224040"/>
    <poly id="A8" type="building" color="255,230,230" fill="1" layer="-1.00" shape="2729.017329,2209.203805 2738.719449,2204.184853 2709.503542,2148.281287 2699.801400,2153.300257 2729.017329,2209.203805"/>
    <poly id="A9" type="building" color="255,230,230" fill="1" layer="-1.00" shape="3746.708354,1105.404679 3752.644325,1105.203425 3752.707254,1107.074327 3818.865556,1104.876272 3818.767112,1101.854062 3826.148089,1101.605088 3825.770800,1090.335399 3818.098738,1090.593911 3818.027460,1088.335568 3802.007634,1088.871188 3801.918126,1086.125736 3746.124227,1087.990906 3746.708354,1105.404679"/>
    <poly id="Agribank" type="amenity" color="237,199,199" fill="1" layer="-1.00" shape="1559.151555,3391.607740 1585.165291,3429.805498 1575.197179,3436.240484 1558.657085,3447.511893 1545.979105,3429.128629 1532.611348,3409.468971 1559.151555,3391.607740"/>
    <poly id="Aha_Cafe" type="amenity" color="237,199,199" fill="1" layer="-1.00" shape="2957.656156,2333.053774 2967.346171,2322.378906 2971.142753,2325.774566 2965.372415,2332.175284 2963.951150,2333.673192 2961.421501,2336.460336 2957.656156,2333.053774"/>
    <poly id="Amiana_Hotel" type="building" color="255,230,230" fill="1" layer="-1.00" shape="1280.154113,3493.901947 1273.993716,3493.460934 1241.196900,3491.157165 1243.002309,3467.302849 1243.424233,3462.014294 1267.483915,3463.775339 1269.732378,3465.081835 1271.904138,3467.162729 1273.305583,3469.494261 1280.154113,3493.901947"/>
    <poly id="Ao_Khương_Thượng" type="water" color="181,209,209" fill="1" layer="-4.00" shape="2167.262254,1392.244929 2143.364725,1376.603725 2120.105606,1345.990262 2119.139252,1317.716511 2145.423993,1301.780687 2161.964038,1311.152409 2199.012039,1370.648212 2193.362127,1383.923311 2167.262254,1392.244929"/>
    <poly id="Asia_Snacks" type="amenity" color="237,199,199" fill="1" layer="-1.00" shape="1313.857819,1174.874968 1322.026204,1162.885327 1335.593882,1172.318500 1327.613196,1184.187340 1313.857819,1174.874968"/>
    <poly id="B" type="building" color="255,230,230" fill="1" layer="-1.00" shape="2110.742427,3539.984021 2156.690763,3525.145967 2154.010332,3516.941469 2108.051642,3531.768410 2110.742427,3539.984021"/>
    <poly id="B1" type="building" color="255,230,230" fill="1" layer="-1.00" shape="3503.318383,1981.470140 3497.108021,1988.477145 3445.461607,1943.202172 3451.671904,1936.206217 3503.318383,1981.470140"/>
    <poly id="B10" type="building" color="255,230,230" fill="1" layer="-1.00" shape="3296.915484,1930.094616 3288.047936,1940.419413 3241.049615,1900.548681 3249.927604,1890.212846 3296.915484,1930.094616"/>
    <poly id="B10_mới" type="building" color="255,230,230" fill="1" layer="-1.00" shape="3235.036086,1903.716050 3243.861611,1911.377265 3239.240281,1916.632778 3243.140896,1920.017972 3246.957158,1915.676936 3272.326531,1937.714009 3268.458070,1942.099040 3272.741481,1945.818296 3276.808683,1941.190798 3285.282367,1948.551349 3275.339202,1959.855623 3224.507391,1915.692471 3235.036086,1903.716050"/>
    <poly id="B11" type="building" color="255,230,230" fill="1" layer="-1.00" shape="3235.077562,1760.490321 3281.975539,1801.744048 3289.837540,1792.919301 3242.939556,1751.665553 3235.077562,1760.490321"/>
    <poly id="B12" type="building" color="255,230,230" fill="1" layer="-1.00" shape="3216.362942,1781.610814 3208.207829,1790.843596 3257.601216,1833.892311 3265.745944,1824.659498 3216.362942,1781.610814"/>
    <poly id="B13" type="building" color="255,230,230" fill="1" layer="-1.00" shape="3189.109886,1811.740746 3181.382482,1820.676925 3230.438940,1862.561614 3238.166411,1853.614389 3189.109886,1811.740746"/>
    <poly id="B14" type="building" color="255,230,230" fill="1" layer="-1.00" shape="3157.599886,1847.028541 3157.097544,1849.682350 3188.061676,1875.146506 3182.194213,1882.188620 3209.101437,1904.322167 3227.519778,1882.192891 3196.183125,1856.427865 3204.383010,1846.575478 3182.722644,1828.752832 3180.055577,1831.959830 3174.177350,1827.125429 3157.599886,1847.028541"/>
    <poly id="B15" type="building" color="255,230,230" fill="1" layer="-1.00" shape="3213.780494,1637.264560 3264.983904,1682.093680 3256.661558,1691.491593 3205.468665,1646.640417 3213.780494,1637.264560"/>
    <poly id="B15b" type="building" color="255,230,230" fill="1" layer="-1.00" shape="3201.369127,1629.584646 3206.384311,1612.609676 3192.664912,1608.608737 3187.649741,1625.583711 3201.369127,1629.584646"/>
    <poly id="B16" type="building" color="255,230,230" fill="1" layer="-1.00" shape="3183.931557,1668.864123 3235.544254,1714.923890 3244.754222,1704.722606 3193.131066,1658.673825 3183.931557,1668.864123"/>
    <poly id="B18" type="building" color="255,230,230" fill="1" layer="-1.00" shape="3194.756971,1759.327849 3187.396422,1767.668245 3181.664603,1762.657511 3180.064969,1764.464387 3172.832895,1758.150814 3174.139785,1756.674462 3164.517739,1748.267546 3163.221300,1749.732885 3156.392756,1743.764548 3157.835567,1742.133946 3147.168527,1732.813972 3145.945245,1734.202215 3139.406312,1728.501040 3140.598184,1727.156907 3135.311223,1722.535908 3142.849488,1713.997185 3194.756971,1759.327849"/>
    <poly id="B19" type="building" color="255,230,230" fill="1" layer="-1.00" shape="3121.981409,1739.500723 3172.583484,1784.027579 3164.867857,1792.698184 3159.974247,1788.389146 3158.782436,1789.722209 3151.943746,1783.709547 3152.968284,1782.563774 3142.674037,1773.511391 3141.429914,1774.910593 3134.974084,1769.220921 3136.050935,1768.009010 3126.346424,1759.468864 3125.342731,1760.603679 3118.659222,1754.724662 3119.506036,1753.777192 3113.763972,1748.733224 3121.981409,1739.500723"/>
    <poly id="B2" type="building" color="255,230,230" fill="1" layer="-1.00" shape="2824.545682,1144.771270 2862.714796,1136.214565 2869.062356,1134.808675 2887.522598,1130.665470 2885.185674,1120.348590 2865.840930,1124.686430 2860.180091,1125.952002 2831.313967,1132.409791 2830.572151,1129.151812 2821.466960,1131.185353 2824.545682,1144.771270"/>
    <poly id="B20" type="building" color="255,230,230" fill="1" layer="-1.00" shape="3106.235357,1645.834748 3151.206553,1685.982246 3158.430214,1677.984243 3113.448561,1637.847739 3106.235357,1645.834748"/>
    <poly id="B20a" type="building" color="255,230,230" fill="1" layer="-1.00" shape="3183.756518,1630.721289 3121.008098,1613.281987 3118.085223,1623.682160 3180.833663,1641.110384 3183.756518,1630.721289"/>
    <poly id="B21" type="building" color="255,230,230" fill="1" layer="-1.00" shape="3050.864165,1624.825875 3078.019411,1649.340191 3072.155153,1655.762527 3099.237852,1680.221161 3090.603574,1689.661801 3064.317407,1665.926783 3070.369776,1659.306193 3042.418005,1634.068287 3050.864165,1624.825875"/>
    <poly id="B22" type="building" color="255,230,230" fill="1" layer="-1.00" shape="3032.211798,1661.940815 3080.198601,1703.819444 3072.723128,1712.281042 3024.725882,1670.413448 3032.211798,1661.940815"/>
    <poly id="B24" type="building" color="255,230,230" fill="1" layer="-1.00" shape="3026.307506,1522.469623 3038.881464,1520.919153 3045.077170,1570.560268 3032.513641,1572.110786 3026.307506,1522.469623"/>
    <poly id="B3" type="building" color="255,230,230" fill="1" layer="-1.00" shape="2818.934990,1120.391527 2828.477235,1118.260640 2827.644061,1114.581585 2856.156257,1108.232633 2861.817102,1106.967059 2880.901506,1102.727475 2878.229528,1090.881409 2815.440188,1104.866471 2818.934990,1120.391527"/>
    <poly id="B4" type="building" color="255,230,230" fill="1" layer="-1.00" shape="3354.088365,2029.622459 3411.260490,2079.530566 3432.854107,2054.418578 3377.090805,2003.410925 3354.088365,2029.622459"/>
    <poly id="B5" type="building" color="255,230,230" fill="1" layer="-1.00" shape="3356.683044,1899.205177 3407.378224,1941.619211 3416.100229,1931.315850 3365.415488,1888.890777 3356.683044,1899.205177"/>
    <poly id="B6" type="building" color="255,230,230" fill="1" layer="-1.00" shape="3330.377414,1929.007787 3377.762217,1970.441462 3385.697758,1961.462187 3338.302496,1920.039503 3330.377414,1929.007787"/>
    <poly id="B7" type="building" color="255,230,230" fill="1" layer="-1.00" shape="3363.956077,1989.041730 3355.150584,1999.422159 3304.062724,1956.585625 3312.857696,1946.227251 3363.956077,1989.041730"/>
    <poly id="B7_mới" type="building" color="255,230,230" fill="1" layer="-1.00" shape="3300.860317,1962.789361 3291.091111,1974.614753 3309.900779,1990.950543 3307.966433,1993.165191 3321.950624,2006.088812 3323.927468,2003.697293 3341.431661,2019.240432 3352.086024,2007.087645 3342.978367,1999.734809 3339.223586,2004.242173 3335.478559,2000.924179 3338.690470,1996.878851 3313.462784,1975.606133 3310.166284,1979.927735 3305.726995,1976.207654 3310.162819,1970.652340 3300.860317,1962.789361"/>
    <poly id="B8" type="building" color="255,230,230" fill="1" layer="-1.00" shape="3292.290484,1842.607404 3339.325684,1883.386085 3346.947886,1874.704001 3333.062899,1862.666360 3299.912736,1833.914231 3292.290484,1842.607404"/>
    <poly id="B8a" type="building" color="255,230,230" fill="1" layer="-1.00" shape="3432.547769,1912.452741 3441.342893,1919.947879 3439.136446,1922.515278 3442.488911,1925.377432 3430.881878,1938.820188 3437.617866,1944.566792 3435.097776,1947.486740 3439.008970,1950.827763 3431.908955,1959.025528 3417.505779,1946.730522 3430.785772,1931.370603 3417.893298,1920.356382 3425.620906,1911.398173 3430.132244,1915.251485 3432.547769,1912.452741"/>
    <poly id="B8b" type="building" color="255,230,230" fill="1" layer="-1.00" shape="3272.624394,1815.099086 3278.992642,1807.705429 3282.717749,1810.868344 3285.457476,1807.683877 3291.903947,1813.163261 3301.461618,1802.056211 3304.193377,1804.372734 3305.469154,1802.885161 3308.573446,1805.513550 3309.849166,1804.037046 3317.547589,1810.596627 3316.805772,1813.326659 3315.540445,1814.803217 3319.389683,1818.077475 3312.979500,1825.537309 3297.385826,1812.295372 3285.538005,1826.080090 3272.624394,1815.099086"/>
    <poly id="B9" type="building" color="255,230,230" fill="1" layer="-1.00" shape="3323.147527,1906.401367 3316.036697,1914.687670 3267.310233,1873.368927 3274.410604,1865.093618 3323.147527,1906.401367"/>
    <poly id="BRG_Mart" type="building" color="255,230,230" fill="1" layer="-1.00" shape="3073.152700,1773.414388 3057.280543,1759.717428 3075.358741,1739.025116 3091.220512,1752.722038 3073.152700,1773.414388"/>
    <poly id="Ba_Ba_Sơn_Đông" type="amenity" color="237,199,199" fill="1" layer="-1.00" shape="3069.773644,2662.471282 3072.815390,2659.133402 3058.488978,2646.141770 3055.374484,2649.479274 3069.773644,2662.471282"/>
    <poly id="Ban_Chỉ_huy_Quân_sự_quận_Đống_Đa" type="military" color="153,153,92" fill="1" layer="-3.00" shape="2488.305410,2952.585419 2499.069333,2955.153741 2527.265241,2939.018187 2523.114156,2931.846443 2502.162883,2895.665739 2495.377087,2899.548806 2490.000229,2890.256644 2483.232827,2878.555423 2454.838834,2894.800711 2458.011447,2900.273894 2486.667582,2949.765544 2488.305410,2952.585419"/>
    <poly id="Ban_Chỉ_huy_quân_sự_phường_Kim_Liên" type="building" color="255,230,230" fill="1" layer="-1.00" shape="3280.446225,1201.404759 3311.004730,1201.276685 3310.969196,1192.167157 3287.800831,1192.267438 3287.770530,1184.143031 3280.369919,1184.181838 3280.446225,1201.404759"/>
    <poly id="Ban_Quản_lý_đầu_tư_dự_án_hạ_tầng_phường_Khương_Đình" type="building" color="255,230,230" fill="1" layer="-1.00" shape="1463.291473,1024.090119 1475.481389,1000.122966 1467.187553,995.963088 1455.008040,1019.930300 1463.291473,1024.090119"/>
    <poly id="Bao_Bao_Quán" type="amenity" color="237,199,199" fill="1" layer="-1.00" shape="2930.954356,2692.661981 2934.296243,2689.558077 2927.815820,2682.661878 2924.463599,2685.754660 2930.954356,2692.661981"/>
    <poly id="Bee_Bridal" type="building" color="255,230,230" fill="1" layer="-1.00" shape="2971.619713,2768.836717 2954.179867,2753.006492 2958.746267,2748.259771 2959.956200,2749.417195 2977.174918,2765.799697 2971.619713,2768.836717"/>
    <poly id="Bread_Papa" type="amenity" color="237,199,199" fill="1" layer="-1.00" shape="1271.176829,1279.530200 1274.537702,1274.732600 1281.187016,1279.326728 1278.283453,1284.126662 1271.176829,1279.530200"/>
    <poly id="Bread_Talk" type="amenity" color="237,199,199" fill="1" layer="-1.00" shape="1210.891718,1245.198305 1214.839243,1239.496076 1205.188717,1232.352004 1200.710449,1238.184349 1210.891718,1245.198305"/>
    <poly id="Buffet_lẩu_nướng_không_khói" type="amenity" color="237,199,199" fill="1" layer="-1.00" shape="1324.710516,1201.018630 1341.799959,1212.816299 1336.719879,1220.471822 1319.504701,1208.872747 1324.710516,1201.018630"/>
    <poly id="Bãi_gửi_xe_ô_tô_trong_công_viên_Đống_Đa" type="parking" color="184,184,179" fill="1" layer="-1.00" shape="2118.430374,2239.204335 2132.108354,2243.115639 2142.238194,2245.802188 2149.995623,2210.755255 2153.507342,2194.868025 2118.430374,2239.204335"/>
    <poly id="Bún_cá_chấm" type="amenity" color="237,199,199" fill="1" layer="-1.00" shape="2953.021788,2151.274406 2950.601312,2149.059177 2954.165478,2145.203777 2956.875631,2147.675090 2966.898941,2156.836641 2968.543692,2158.328382 2964.979467,2162.194847 2953.021788,2151.274406"/>
    <poly id="Bún_cá_chấm_101" type="building" color="255,230,230" fill="1" layer="-1.00" shape="2953.021788,2151.274406 2950.601312,2149.059177 2954.165478,2145.203777 2956.875631,2147.675090 2966.898941,2156.836641 2968.543692,2158.328382 2964.979467,2162.194847 2953.021788,2151.274406"/>
    <poly id="Bưu_điện_Xã_Đàn" type="amenity" color="237,199,199" fill="1" layer="-1.00" shape="3235.460230,2616.173592 3247.489527,2607.326340 3244.486263,2603.292786 3232.456965,2612.140041 3235.460230,2616.173592"/>
    <poly id="Bảo_hiểm_xã_hội_cơ_sở_Đống_Đa" type="building" color="255,230,230" fill="1" layer="-1.00" shape="2748.953662,2692.788773 2740.460914,2685.129536 2736.698944,2681.081068 2734.691023,2663.482848 2748.625883,2659.869462 2750.581366,2677.555959 2757.014040,2683.654909 2748.953662,2692.788773"/>
    <poly id="Bảo_tàng_Phòng_không_Không_quân" type="military" color="153,153,92" fill="1" layer="-3.00" shape="2715.609713,942.173131 2651.765915,958.986874 2632.969305,949.802201 2594.441654,788.844474 2623.674619,731.772199 2662.807824,751.920460 2678.013227,808.238072 2715.609713,942.173131"/>
    <poly id="Bể_bơi_Thái_Hà" type="leisure" color="207,245,201" fill="1" layer="-2.00" shape="1919.235589,2014.994208 1951.268137,1978.555750 1970.265219,1995.068029 1938.222323,2031.495330 1919.235589,2014.994208"/>
    <poly id="Bể_bơi_ĐH_Thủy_Lợi" type="building" color="255,230,230" fill="1" layer="-1.00" shape="2479.705341,1524.954304 2422.948849,1552.508717 2411.730188,1529.173740 2424.306875,1523.062624 2422.239467,1518.868056 2448.778739,1505.966780 2451.144341,1510.782728 2463.804433,1504.627799 2465.007789,1507.080154 2469.780082,1504.758351 2479.705341,1524.954304"/>
    <poly id="Bệnh_viện_Bạch_Mai" type="amenity" color="237,199,199" fill="1" layer="-1.00" shape="3878.931148,1144.529534 3880.501689,1055.425508 3883.085639,1028.553779 3883.556600,974.597449 3883.068565,950.797664 3844.417487,951.977927 3829.334124,952.297081 3821.848708,944.720097 3820.342907,938.535974 3819.585568,916.516804 3782.463403,917.494950 3781.591373,883.665125 3700.025500,880.447469 3694.281502,889.604143 3717.408926,899.366201 3702.430855,944.956057 3691.036744,961.233299 3598.802154,958.945217 3598.085762,966.722591 3592.027311,976.397867 3593.436680,1002.969574 3590.898884,1003.288321 3592.594861,1078.275002 3575.930056,1078.918143 3575.372728,1090.061166 3538.317362,1092.257723 3539.163399,1119.236006 3597.892090,1120.595392 3600.420551,1211.237266 3591.709315,1211.468293 3597.097059,1325.701009 3686.780446,1322.563289 3688.935478,1381.281780 3701.576557,1382.820262 3700.810078,1283.343876 3755.562899,1283.653599 3825.748439,1284.354564 3826.218519,1341.226864 3880.388171,1339.740847 3878.931148,1144.529534"/>
    <poly id="Bệnh_viện_Bệnh_Nhiệt_đới_Trung_ương" type="amenity" color="237,199,199" fill="1" layer="-1.00" shape="3636.845215,1190.531069 3658.509560,1189.847820 3658.635611,1193.556419 3663.116045,1193.424974 3663.010027,1189.860371 3677.522216,1189.405255 3677.041314,1174.095036 3668.516965,1174.360211 3668.018403,1158.452203 3676.282863,1158.196733 3675.847825,1144.048945 3660.639168,1144.511477 3660.523569,1140.791865 3657.664752,1140.887547 3657.780701,1144.540750 3635.409417,1145.242430 3636.845215,1190.531069"/>
    <poly id="Bệnh_viện_Châm_Cứu_Trung_Ương" type="amenity" color="237,199,199" fill="1" layer="-1.00" shape="1702.749358,1839.742182 1671.126350,1812.617247 1631.092453,1781.929490 1639.875756,1771.625553 1602.057908,1744.524338 1573.697679,1780.362433 1548.744140,1830.883680 1577.122304,1862.507664 1643.294664,1915.621132 1702.749358,1839.742182"/>
    <poly id="Bệnh_viện_Da_liễu_Trung_ương" type="amenity" color="237,199,199" fill="1" layer="-1.00" shape="3688.935478,1381.281780 3647.138443,1374.100316 3599.516110,1363.866712 3597.097059,1325.701009 3686.780446,1322.563289 3688.935478,1381.281780"/>
    <poly id="Bệnh_viện_Lão_khoa_Trung_ương" type="amenity" color="237,199,199" fill="1" layer="-1.00" shape="3701.576557,1382.820262 3726.237617,1383.436791 3758.696717,1383.529838 3755.562899,1283.653599 3700.810078,1283.343876 3701.576557,1382.820262"/>
    <poly id="Bệnh_viện_Nội_tiết_Trung_ương" type="amenity" color="237,199,199" fill="1" layer="-1.00" shape="1124.252033,2296.919488 1160.436253,2269.266936 1176.345834,2257.482745 1184.141350,2251.235653 1215.321024,2291.894087 1161.693288,2314.200046 1135.761626,2326.619385 1130.125698,2329.224932 1126.227011,2321.324343 1133.737641,2315.905908 1124.252033,2296.919488"/>
    <poly id="Bệnh_viện_Thẩm_mỹ_Kangnam_Hàn_Quốc" type="amenity" color="237,199,199" fill="1" layer="-1.00" shape="2807.589928,1001.413194 2797.555669,1004.205646 2794.820948,994.418001 2790.310502,978.312119 2800.334268,975.541745 2807.589928,1001.413194"/>
    <poly id="Bệnh_viện_Việt_Pháp" type="amenity" color="237,199,199" fill="1" layer="-1.00" shape="3755.562899,1283.653599 3758.696717,1383.529838 3773.528613,1383.519231 3880.033582,1383.426262 3880.388171,1339.740847 3826.218519,1341.226864 3825.748439,1284.354564 3755.562899,1283.653599"/>
    <poly id="Bệnh_viện_Đa_khoa_Đống_Đa" type="amenity" color="237,199,199" fill="1" layer="-1.00" shape="2471.602385,2646.024382 2429.624143,2572.013605 2386.666806,2594.747220 2373.129872,2571.676931 2313.378219,2604.351862 2376.218487,2717.929301 2386.929470,2720.718638 2470.610080,2675.073936 2471.602385,2646.024382"/>
    <poly id="Bệnh_viện_Đông_Đô" type="amenity" color="237,199,199" fill="1" layer="-1.00" shape="3557.875641,1977.007769 3572.874259,1960.959657 3569.016219,1957.397510 3566.471772,1955.048717 3560.865716,1949.872477 3545.877552,1965.909586 3557.875641,1977.007769"/>
    <poly id="Bệnh_viện_Đại_học_Y_Hà_Nội" type="amenity" color="237,199,199" fill="1" layer="-1.00" shape="2727.230829,1142.251282 2742.022079,1202.141957 2771.172060,1195.032455 2765.736150,1173.011218 2762.052503,1157.817246 2778.609748,1153.841133 2780.248036,1160.601396 2805.932107,1154.425833 2807.153450,1159.412981 2818.226342,1156.747689 2814.695018,1142.251808 2818.004371,1141.461011 2814.330754,1126.344558 2810.646713,1127.233025 2809.466251,1122.378911 2727.230829,1142.251282"/>
    <poly id="C" type="building" color="255,230,230" fill="1" layer="-1.00" shape="2028.937973,3565.429040 2074.285417,3550.200269 2071.408815,3541.740200 2026.071743,3556.969033 2028.937973,3565.429040"/>
    <poly id="CLand_Tower" type="building" color="255,230,230" fill="1" layer="-1.00" shape="2861.593908,2524.580455 2851.874496,2512.974408 2862.375057,2504.284957 2859.276420,2500.583036 2870.486750,2491.310654 2868.606909,2489.065042 2892.384596,2469.387308 2902.703098,2481.704878 2895.490497,2487.666440 2897.008894,2489.467435 2891.403748,2494.098083 2894.285515,2497.533238 2861.593908,2524.580455"/>
    <poly id="C1" type="building" color="255,230,230" fill="1" layer="-1.00" shape="3329.336454,1482.135135 3391.498271,1498.520636 3394.488099,1487.279651 3332.326185,1470.905209 3329.336454,1482.135135"/>
    <poly id="C10" type="building" color="255,230,230" fill="1" layer="-1.00" shape="3254.348896,1304.570344 3257.644364,1290.519547 3192.803530,1275.459886 3189.593227,1289.134811 3196.994996,1290.855856 3197.855994,1287.196691 3202.984249,1288.396720 3202.048704,1292.398618 3218.585923,1296.237172 3219.415225,1292.677458 3224.138709,1293.764696 3223.309522,1297.302273 3240.604588,1301.310833 3241.465711,1297.629534 3246.542108,1298.807170 3245.670244,1302.554823 3254.348896,1304.570344"/>
    <poly id="C11" type="building" color="255,230,230" fill="1" layer="-1.00" shape="3294.495761,1488.328427 3229.347241,1470.643753 3226.158026,1482.271118 3234.440423,1484.517001 3235.521127,1480.582273 3240.824734,1482.026739 3239.659437,1486.237736 3256.577018,1490.842047 3257.700225,1486.730448 3262.370760,1487.994518 3261.300443,1491.929298 3277.564157,1496.353119 3278.581180,1492.672636 3284.050843,1494.162258 3283.023136,1497.898028 3291.253610,1500.132599 3294.495761,1488.328427"/>
    <poly id="C12" type="building" color="255,230,230" fill="1" layer="-1.00" shape="3141.948340,1446.489938 3138.818656,1458.671050 3148.399264,1461.111826 3149.396455,1457.243069 3153.413493,1458.260192 3152.469250,1461.941062 3170.094319,1466.416153 3170.964137,1463.055881 3176.413551,1464.445745 3175.458678,1468.170832 3190.634021,1472.035462 3191.567648,1468.398813 3197.235088,1469.834095 3196.184706,1473.935010 3205.350142,1476.262968 3208.649635,1463.418645 3141.948340,1446.489938"/>
    <poly id="C13a" type="building" color="255,230,230" fill="1" layer="-1.00" shape="3180.484025,1377.568518 3189.368548,1379.961408 3188.785816,1382.083511 3198.106281,1384.589366 3198.530166,1383.030926 3210.455852,1386.225567 3209.936576,1388.137699 3220.066624,1390.858095 3220.490510,1389.299656 3226.510369,1390.924952 3229.604613,1379.573803 3183.417427,1367.157342 3180.484025,1377.568518"/>
    <poly id="C13b" type="building" color="255,230,230" fill="1" layer="-1.00" shape="3173.037403,1362.542958 3183.862329,1365.554737 3183.417427,1367.157342 3180.484025,1377.568518 3175.654734,1394.765833 3164.819374,1391.765072 3173.037403,1362.542958"/>
    <poly id="C14" type="building" color="255,230,230" fill="1" layer="-1.00" shape="3162.378211,1311.838065 3159.656726,1321.475558 3076.771526,1298.607484 3079.494235,1288.726480 3162.378211,1311.838065"/>
    <poly id="C15" type="building" color="255,230,230" fill="1" layer="-1.00" shape="3169.320812,1284.037126 3172.201849,1273.703154 3129.814769,1261.992934 3128.713407,1265.905422 3126.565014,1265.307587 3124.722310,1271.861570 3135.018102,1274.704528 3135.801770,1271.919365 3141.644990,1273.543707 3140.903645,1276.185200 3154.271514,1279.885401 3155.055128,1277.111307 3161.749455,1278.961466 3160.976291,1281.724546 3169.320812,1284.037126"/>
    <poly id="C2" type="building" color="255,230,230" fill="1" layer="-1.00" shape="3339.860136,1441.369671 3342.519176,1431.765081 3400.910284,1447.765630 3398.240819,1457.370158 3339.860136,1441.369671"/>
    <poly id="C3" type="building" color="255,230,230" fill="1" layer="-1.00" shape="3350.007476,1403.015169 3353.143783,1391.586781 3415.448881,1408.460118 3412.322927,1419.888551 3350.007476,1403.015169"/>
    <poly id="C4" type="building" color="255,230,230" fill="1" layer="-1.00" shape="3239.878999,1438.234966 3302.287951,1455.108425 3305.392689,1443.746275 3242.973245,1426.883819 3239.878999,1438.234966"/>
    <poly id="C5" type="building" color="255,230,230" fill="1" layer="-1.00" shape="3250.806841,1397.659730 3313.332176,1414.168572 3316.777618,1401.258620 3254.262688,1384.738752 3250.806841,1397.659730"/>
    <poly id="C6" type="building" color="255,230,230" fill="1" layer="-1.00" shape="3261.908935,1357.561354 3324.246752,1374.179937 3327.574873,1361.844933 3265.237012,1345.226340 3261.908935,1357.561354"/>
    <poly id="C7" type="building" color="255,230,230" fill="1" layer="-1.00" shape="3153.152101,1414.737648 3216.103813,1431.204075 3219.221142,1419.410307 3156.269330,1402.954938 3153.152101,1414.737648"/>
    <poly id="C8" type="building" color="255,230,230" fill="1" layer="-1.00" shape="3175.881350,1333.425619 3238.134912,1350.286937 3241.430115,1338.272732 3179.176510,1321.411404 3175.881350,1333.425619"/>
    <poly id="C9" type="building" color="255,230,230" fill="1" layer="-1.00" shape="3273.020654,1311.652094 3277.892856,1294.222591 3345.261257,1312.870921 3340.452680,1330.046166 3332.440273,1327.834851 3333.499527,1324.032838 3327.874257,1322.475978 3326.772562,1326.443796 3311.308235,1322.168002 3312.483896,1317.968133 3306.547223,1316.332173 3305.456389,1320.211501 3288.933422,1315.642415 3289.823132,1312.459348 3285.495187,1311.263473 3284.499576,1314.822315 3273.020654,1311.652094"/>
    <poly id="CGV" type="amenity" color="237,199,199" fill="1" layer="-1.00" shape="1257.179184,1226.053697 1278.312155,1239.819978 1314.179581,1187.173611 1307.667954,1182.071027 1312.669963,1175.455527 1276.937838,1150.690161 1238.308055,1206.952946 1259.303239,1221.249781 1257.179184,1226.053697"/>