<?xml version="1.0" encoding="UTF-8"?>
<additional>
    <poi id="school_442033041" type="school" color="50,150,255" layer="10" x="2429.7130953719607" y="998.4798864014447" width="15" height="15">
        <param key="name" value="Học Viện Không Quân"/>
    </poi>
    <poi id="bank_444227294" type="bank" color="0,255,255" layer="10" x="2785.4322336320765" y="1631.1259296513163" width="15" height="15">
        <param key="name" value="Vietcombank"/>
    </poi>
    <poi id="bank_446044132" type="bank" color="0,255,255" layer="10" x="3177.923515248229" y="2439.330865786411" width="15" height="15">
        <param key="name" value="LPBank"/>
    </poi>
    <poi id="bank_1001774355" type="bank" color="0,255,255" layer="10" x="3530.5034739036346" y="3052.510385316331" width="15" height="15">
        <param key="name" value="VPBank"/>
    </poi>
    <poi id="cafe_1279138536" type="cafe" color="139,69,19" layer="10" x="2889.1735982053215" y="2187.7335742875002" width="15" height="15">
        <param key="name" value="Cà Phê Newlife"/>
    </poi>
    <poi id="bank_1494035964" type="bank" color="0,255,255" layer="10" x="1943.6881059471052" y="1169.248637876939" width="15" height="15">
        <param key="name" value="ACB"/>
    </poi>
    <poi id="bank_2182514715" type="bank" color="0,255,255" layer="10" x="2050.5096672939835" y="1547.6857575634494" width="15" height="15">
        <param key="name" value="PG Bank"/>
    </poi>
    <poi id="cafe_3036397234" type="cafe" color="139,69,19" layer="10" x="2201.411163998535" y="3009.6644175602123" width="15" height="15">
        <param key="name" value="Highlands Coffee"/>
    </poi>
    <poi id="clothes_3327079260" type="clothes" color="200,200,200" layer="10" x="2294.1086605058517" y="1808.242902496364" width="15" height="15">
        <param key="name" value="Tink Shop"/>
    </poi>
    <poi id="restaurant_3684980414" type="restaurant" color="255,200,50" layer="10" x="1998.8375559756532" y="2977.384255096782" width="15" height="15">
        <param key="name" value="Quán Thị Mẹt"/>
    </poi>
    <poi id="clothes_3733115426" type="clothes" color="200,200,200" layer="10" x="1387.9386435444467" y="2629.4331311150454" width="15" height="15">
        <param key="name" value="Cửa Hàng Thời Trang Dan Gun"/>
    </poi>
    <poi id="cafe_3747365124" type="cafe" color="139,69,19" layer="10" x="1445.5865942356177" y="2343.3657910614274" width="15" height="15">
        <param key="name" value="Cà Phê Grazio&apos;s"/>
    </poi>
    <poi id="kindergarten_4066099003" type="kindergarten" color="100,200,255" layer="10" x="2601.3701811087085" y="2535.436970205512" width="15" height="15">
        <param key="name" value="Trường Mầm Non Magic Star"/>
    </poi>
    <poi id="restaurant_4090277644" type="restaurant" color="255,200,50" layer="10" x="1346.242494934122" y="1264.8494439078495" width="15" height="15">
        <param key="name" value="Pizza Hut"/>
    </poi>
    <poi id="clothes_4153385729" type="clothes" color="200,200,200" layer="10" x="2093.969531795592" y="2935.5710839307867" width="15" height="15">
        <param key="name" value="FoTo Sỉ Lẻ Abercrombie &amp; Fitch and Hollister"/>
    </poi>
    <poi id="language_school_4165073290" type="language_school" color="200,200,200" layer="10" x="1327.8834594830405" y="3075.6928046778776" width="15" height="15">
        <param key="name" value="Trung Tâm Tiếng Anh Apax"/>
    </poi>
    <poi id="mall_4171931890" type="mall" color="150,50,200" layer="10" x="1282.81850923202" y="1171.4845084985718" width="15" height="15">
        <param key="name" value="Vincom Mega Mall Royal City"/>
    </poi>
    <poi id="restaurant_4286225207" type="restaurant" color="255,200,50" layer="10" x="2254.272541559185" y="2133.847724538762" width="15" height="15">
        <param key="name" value="OiShi Ngon"/>
    </poi>
    <poi id="fast_food_4382109792" type="fast_food" color="255,170,0" layer="10" x="3600.192409753916" y="2811.7711558621377" width="15" height="15">
        <param key="name" value="Bánh Mỳ Doner Kebab Hùng Jock"/>
    </poi>
    <poi id="cafe_4511484589" type="cafe" color="139,69,19" layer="10" x="2345.593823170988" y="3201.4844815572724" width="15" height="15">
        <param key="name" value="Trà Sữa Chachago"/>
    </poi>
    <poi id="school_4531553592" type="school" color="50,150,255" layer="10" x="2785.0835294295102" y="3557.3243783134967" width="15" height="15">
        <param key="name" value="Trung Tâm Fablab Hanoi"/>
    </poi>
    <poi id="cafe_4709222689" type="cafe" color="139,69,19" layer="10" x="2252.1215693410486" y="2353.0582151478156" width="15" height="15">
        <param key="name" value="Cà Phê Bestea House"/>
    </poi>
    <poi id="cafe_4738001522" type="cafe" color="139,69,19" layer="10" x="1543.1166378152557" y="1078.8666920005344" width="15" height="15">
        <param key="name" value="Cà Phê Aroi"/>
    </poi>
    <poi id="clothes_4880374322" type="clothes" color="200,200,200" layer="10" x="2880.283632588922" y="1435.3311652438715" width="15" height="15">
        <param key="name" value="Vintage Clothes Market"/>
    </poi>
    <poi id="cafe_5355786321" type="cafe" color="139,69,19" layer="10" x="2273.558538893936" y="2661.5137935136445" width="15" height="15">
        <param key="name" value="Phòng Trà Phố Nghèo"/>
    </poi>
    <poi id="clothes_5397904122" type="clothes" color="200,200,200" layer="10" x="1524.5202002852457" y="3359.9183788802475" width="15" height="15">
        <param key="name" value="Cửa Hàng Thời Trang Chicland"/>
    </poi>
    <poi id="school_5398016422" type="school" color="50,150,255" layer="10" x="1553.2420894383686" y="2328.3438045005314" width="15" height="15">
        <param key="name" value="Tiếng Trung Cầm Xu - cs2"/>
    </poi>
    <poi id="restaurant_5474690735" type="restaurant" color="255,200,50" layer="10" x="3044.973142898758" y="2429.8598126992583" width="15" height="15">
        <param key="name" value="Cửa Hàng Bánh Mì Cười - Nam Đồng"/>
    </poi>
    <poi id="restaurant_5474800534" type="restaurant" color="255,200,50" layer="10" x="3119.5200572786853" y="1908.4700976787135" width="15" height="15">
        <param key="name" value="Bánh Đúc Nóng - Trung Tự"/>
    </poi>
    <poi id="clothes_5485647877" type="clothes" color="200,200,200" layer="10" x="2099.9673573486507" y="2097.0346313258633" width="15" height="15">
        <param key="name" value="Shop Áo Phông Trắng Trơn Authentic"/>
    </poi>
    <poi id="cafe_5485649434" type="cafe" color="139,69,19" layer="10" x="2425.2794396320824" y="2821.0091897379607" width="15" height="15">
        <param key="name" value="Cà Phê Moonlight"/>
    </poi>
    <poi id="marketplace_5485651759" type="marketplace" color="150,50,200" layer="10" x="2413.903115568566" y="2812.250483730808" width="15" height="15">
        <param key="name" value="Chợ Sáng Trần Quang Diệu"/>
    </poi>
    <poi id="restaurant_5485663514" type="restaurant" color="255,200,50" layer="10" x="1779.686110343784" y="3608.441765957512" width="15" height="15">
        <param key="name" value="Nhà Hàng Cơm Niêu Kombo"/>
    </poi>
    <poi id="restaurant_5485665297" type="restaurant" color="255,200,50" layer="10" x="1676.1879984098487" y="3568.2517884471454" width="15" height="15">
        <param key="name" value="T+ Beer Club"/>
    </poi>
    <poi id="restaurant_5485670670" type="restaurant" color="255,200,50" layer="10" x="1750.7514210916124" y="3576.5930125582963" width="15" height="15">
        <param key="name" value="Nhà Hàng Bít Tết Ngon"/>
    </poi>
    <poi id="fast_food_5485670930" type="fast_food" color="255,170,0" layer="10" x="3424.8862037074286" y="2162.8700388167053" width="15" height="15">
        <param key="name" value="Lotteria"/>
    </poi>
    <poi id="cafe_5485674588" type="cafe" color="139,69,19" layer="10" x="1579.1155716191279" y="3652.9695937796496" width="15" height="15">
        <param key="name" value="Highlands Coffee"/>
    </poi>
    <poi id="cafe_5485700946" type="cafe" color="139,69,19" layer="10" x="3444.178540194989" y="2229.8578703771345" width="15" height="15">
        <param key="name" value="Taste Tea"/>
    </poi>
    <poi id="restaurant_5485795813" type="restaurant" color="255,200,50" layer="10" x="1378.280081189936" y="3119.8147150455043" width="15" height="15">
        <param key="name" value="Nhà Hàng Hàng Bánh Poeme"/>
    </poi>
    <poi id="supermarket_5485816793" type="supermarket" color="150,50,200" layer="10" x="1999.1105577349663" y="2387.7808014727198" width="15" height="15">
        <param key="name" value="Siêu thị Minh Hoa"/>
    </poi>
    <poi id="bank_5485831311" type="bank" color="0,255,255" layer="10" x="1334.429130661767" y="3078.0506395651028" width="15" height="15">
        <param key="name" value="BIDV"/>
    </poi>
    <poi id="cafe_5485871780" type="cafe" color="139,69,19" layer="10" x="1489.4235602013068" y="1044.036271469202" width="15" height="15">
        <param key="name" value="Cà Phê Firefly"/>
    </poi>
    <poi id="restaurant_5485874465" type="restaurant" color="255,200,50" layer="10" x="2774.0054638277506" y="933.6990726185031" width="15" height="15">
        <param key="name" value="Nhà hàng Cảnh Hồ"/>
    </poi>
    <poi id="fast_food_5485879965" type="fast_food" color="255,170,0" layer="10" x="1993.0399776659906" y="1683.6421345542185" width="15" height="15">
        <param key="name" value="KFC"/>
    </poi>
    <poi id="restaurant_5486075337" type="restaurant" color="255,200,50" layer="10" x="1659.2988382877083" y="3424.8398113898" width="15" height="15">
        <param key="name" value="Nhà Hàng Bia Lan Chín"/>
    </poi>
    <poi id="convenience_5530044723" type="convenience" color="180,100,220" layer="10" x="3231.54927510384" y="2493.48125431221" width="15" height="15">
        <param key="name" value="WinMart+"/>
    </poi>
    <poi id="bank_5568364586" type="bank" color="0,255,255" layer="10" x="3416.162575495662" y="2064.3260114109144" width="15" height="15">
        <param key="name" value="NCB Bank"/>
    </poi>
    <poi id="supermarket_5595959521" type="supermarket" color="150,50,200" layer="10" x="2957.067138209357" y="1601.9568030540831" width="15" height="15">
        <param key="name" value="WinMart"/>
    </poi>
    <poi id="supermarket_5603479821" type="supermarket" color="150,50,200" layer="10" x="1657.6539414922008" y="2398.6434578434564" width="15" height="15">
        <param key="name" value="Siêu thị Minh Hoa Thái Hà"/>
    </poi>
    <poi id="supermarket_5603611822" type="supermarket" color="150,50,200" layer="10" x="2290.76834507531" y="2874.7700503235683" width="15" height="15">
        <param key="name" value="Siêu thị Hoàng Cầu"/>
    </poi>
    <poi id="supermarket_5608461621" type="supermarket" color="150,50,200" layer="10" x="3267.6304919809336" y="1629.1117021837272" width="15" height="15">
        <param key="name" value="BRG Mart"/>
    </poi>
    <poi id="convenience_5609997886" type="convenience" color="180,100,220" layer="10" x="1906.9147481096443" y="946.9273534300737" width="15" height="15">
        <param key="name" value="WinMart+"/>
    </poi>
    <poi id="convenience_5609999114" type="convenience" color="180,100,220" layer="10" x="2790.3495084870374" y="2156.8255859646015" width="15" height="15">
        <param key="name" value="Circle K"/>
    </poi>
    <poi id="convenience_5609999993" type="convenience" color="180,100,220" layer="10" x="3529.8194537867093" y="2174.1451945062727" width="15" height="15">
        <param key="name" value="WinMart+"/>
    </poi>
    <poi id="supermarket_5619165232" type="supermarket" color="150,50,200" layer="10" x="1238.2743439401966" y="3426.5025978437625" width="15" height="15">
        <param key="name" value="Siêu Thị Hapro"/>
    </poi>
    <poi id="convenience_5694009529" type="convenience" color="180,100,220" layer="10" x="3325.165742452489" y="1637.7248750817962" width="15" height="15">
        <param key="name" value="WinMart+"/>
    </poi>
    <poi id="hospital_5808582515" type="hospital" color="255,50,50" layer="10" x="3588.0929057912435" y="2051.568558308296" width="15" height="15">
        <param key="name" value="Phòng khám Đa khoa Quốc tế Hà Nội"/>
    </poi>
    <poi id="cafe_6149560185" type="cafe" color="139,69,19" layer="10" x="3013.6736709133256" y="2911.4960564207286" width="15" height="15">
        <param key="name" value="Quán Cầm"/>
    </poi>
    <poi id="restaurant_6174044986" type="restaurant" color="255,200,50" layer="10" x="3521.812743030023" y="2250.23221111577" width="15" height="15">
        <param key="name" value="Nhà Hàng Chay Tâm An"/>
    </poi>
    <poi id="restaurant_6207082656" type="restaurant" color="255,200,50" layer="10" x="1815.7471708897501" y="2783.8510419037193" width="15" height="15">
        <param key="name" value="Nhà hàng MAISON"/>
    </poi>
    <poi id="restaurant_6413826385" type="restaurant" color="255,200,50" layer="10" x="2211.347646576469" y="2731.775882956572" width="15" height="15">
        <param key="name" value="Nhà Hàng Chay Tuệ Giác"/>
    </poi>
    <poi id="restaurant_6419220950" type="restaurant" color="255,200,50" layer="10" x="3149.257579452358" y="1282.6706272996962" width="15" height="15">
        <param key="name" value="Cơm Chay An Nhiên"/>
    </poi>
    <poi id="restaurant_6483119385" type="restaurant" color="255,200,50" layer="10" x="2564.9933012833353" y="3024.6955460938625" width="15" height="15">
        <param key="name" value="Cơm Nấm Việt Hà Thành"/>
    </poi>
    <poi id="fast_food_6491366585" type="fast_food" color="255,170,0" layer="10" x="2170.518669920275" y="3067.0940459505655" width="15" height="15">
        <param key="name" value="Lotteria"/>
    </poi>
    <poi id="cafe_6495167985" type="cafe" color="139,69,19" layer="10" x="3314.4648914989084" y="3288.0782096977346" width="15" height="15">
        <param key="name" value="Tiệm cà phê LẠ LÙNG"/>
    </poi>
    <poi id="restaurant_6496942485" type="restaurant" color="255,200,50" layer="10" x="2584.9413925240515" y="3015.8003630056046" width="15" height="15">
        <param key="name" value="Nhà Hàng Dim Sum Đại Hùng"/>
    </poi>
    <poi id="convenience_6505293886" type="convenience" color="180,100,220" layer="10" x="2319.459127852344" y="3367.7524839364924" width="15" height="15">
        <param key="name" value="Circle K"/>
    </poi>
    <poi id="cafe_6531739087" type="cafe" color="139,69,19" layer="10" x="1534.6417449729051" y="1398.3241052418016" width="15" height="15">
        <param key="name" value="Cộng Cà Phê"/>
    </poi>
    <poi id="restaurant_6561157585" type="restaurant" color="255,200,50" layer="10" x="2222.3228969038464" y="3061.639203755185" width="15" height="15">
        <param key="name" value="Le Monde Steak"/>
    </poi>
    <poi id="restaurant_6562291992" type="restaurant" color="255,200,50" layer="10" x="2031.9665696646553" y="2564.5581198893487" width="15" height="15">
        <param key="name" value="Nhà Hàng Cà Phê Hub"/>
    </poi>
    <poi id="restaurant_6581613985" type="restaurant" color="255,200,50" layer="10" x="1828.4867787964176" y="2270.7617096547037" width="15" height="15">
        <param key="name" value="Cửa Hàng Doner Kebab"/>
    </poi>
    <poi id="restaurant_6609648488" type="restaurant" color="255,200,50" layer="10" x="1727.4031786849955" y="2317.3607053617015" width="15" height="15">
        <param key="name" value="Nhà Hàng Good Sun"/>
    </poi>
    <poi id="cafe_6609660791" type="cafe" color="139,69,19" layer="10" x="1984.9400001514005" y="2711.5703825009987" width="15" height="15">
        <param key="name" value="Cà Phê Aha"/>
    </poi>
    <poi id="bank_6617292916" type="bank" color="0,255,255" layer="10" x="2532.325919147348" y="961.5886980430223" width="15" height="15">
        <param key="name" value="BIDV"/>
    </poi>
    <poi id="bank_6617292921" type="bank" color="0,255,255" layer="10" x="2537.6275912042474" y="987.5273700463586" width="15" height="15">
        <param key="name" value="Saigon Comercial Bank"/>
    </poi>
    <poi id="bank_6617292923" type="bank" color="0,255,255" layer="10" x="2528.9061645681504" y="947.5694133904763" width="15" height="15">
        <param key="name" value="VietinBank"/>
    </poi>
    <poi id="bank_6661539806" type="bank" color="0,255,255" layer="10" x="3450.302555343136" y="1320.4269033400342" width="15" height="15">
        <param key="name" value="Agribank"/>
    </poi>
    <poi id="clinic_6661539807" type="clinic" color="255,100,100" layer="10" x="3440.9822599528125" y="1317.8877018806525" width="15" height="15">
        <param key="name" value="Vina Medical"/>
    </poi>
    <poi id="bank_6661539809" type="bank" color="0,255,255" layer="10" x="3427.2073118728586" y="1312.547003003303" width="15" height="15">
        <param key="name" value="SCB"/>
    </poi>
    <poi id="bank_6661539810" type="bank" color="0,255,255" layer="10" x="3419.59029797744" y="1308.2679122560658" width="15" height="15">
        <param key="name" value="VPBank"/>
    </poi>
    <poi id="bank_6661539811" type="bank" color="0,255,255" layer="10" x="3409.246185357799" y="1308.7118558599614" width="15" height="15">
        <param key="name" value="Ocean Bank"/>
    </poi>
    <poi id="bank_6661539812" type="bank" color="0,255,255" layer="10" x="3400.4745312682353" y="1306.596150526777" width="15" height="15">
        <param key="name" value="Vietcombank"/>
    </poi>
    <poi id="convenience_6661635851" type="convenience" color="180,100,220" layer="10" x="3718.7609085446456" y="1401.9372139051557" width="15" height="15">
        <param key="name" value="WinMart+"/>
    </poi>
    <poi id="bank_6661635856" type="bank" color="0,255,255" layer="10" x="3591.930439944612" y="1385.3329643611796" width="15" height="15">
        <param key="name" value="TPBank"/>
    </poi>
    <poi id="bank_6668082611" type="bank" color="0,255,255" layer="10" x="3645.552973951213" y="1876.2022678586654" width="15" height="15">
        <param key="name" value="BacA Bank"/>
    </poi>
    <poi id="bank_6677449288" type="bank" color="0,255,255" layer="10" x="2556.4328461815603" y="3114.272484707646" width="15" height="15">
        <param key="name" value="VietinBank"/>
    </poi>
    <poi id="bank_6677803295" type="bank" color="0,255,255" layer="10" x="3342.1035417612875" y="3058.784236100968" width="15" height="15">
        <param key="name" value="VPBank"/>
    </poi>
    <poi id="bank_6677803296" type="bank" color="0,255,255" layer="10" x="3152.5031223228434" y="3054.1847041691653" width="15" height="15">
        <param key="name" value="BacA Bank"/>
    </poi>
    <poi id="convenience_6677854926" type="convenience" color="180,100,220" layer="10" x="2397.9060060000047" y="3475.2236869279295" width="15" height="15">
        <param key="name" value="WinMart+"/>
    </poi>
    <poi id="cafe_6679611341" type="cafe" color="139,69,19" layer="10" x="2833.0169551612344" y="2126.210707207676" width="15" height="15">
        <param key="name" value="Cà Phê Chợ - Trung Tự"/>
    </poi>
    <poi id="restaurant_6679645374" type="restaurant" color="255,200,50" layer="10" x="3024.1311375407968" y="2364.8235270325094" width="15" height="15">
        <param key="name" value="SUSHI GARDEN - NHÀ HÀNG NHẬT BẢN"/>
    </poi>
    <poi id="cafe_6679685131" type="cafe" color="139,69,19" layer="10" x="2839.2609125981107" y="2136.6586004104465" width="15" height="15">
        <param key="name" value="Cà Phê Gemax"/>
    </poi>
    <poi id="restaurant_6679712288" type="restaurant" color="255,200,50" layer="10" x="2842.956601191894" y="2141.4815333266743" width="15" height="15">
        <param key="name" value="Phở Lý Quốc Sư"/>
    </poi>
    <poi id="restaurant_6682554071" type="restaurant" color="255,200,50" layer="10" x="2930.674422068172" y="2642.642118865624" width="15" height="15">
        <param key="name" value="Cube Beefsteak &amp; Drinks"/>
    </poi>
    <poi id="convenience_6684445894" type="convenience" color="180,100,220" layer="10" x="2809.295903132297" y="3024.259923304897" width="15" height="15">
        <param key="name" value="WinMart+"/>
    </poi>
    <poi id="convenience_6684446287" type="convenience" color="180,100,220" layer="10" x="2772.8575550391106" y="2026.8684724634513" width="15" height="15">
        <param key="name" value="WinMart+"/>
    </poi>
    <poi id="convenience_6684446387" type="convenience" color="180,100,220" layer="10" x="3245.13574433513" y="3266.3423494943418" width="15" height="15">
        <param key="name" value="WinMart+"/>
    </poi>
    <poi id="convenience_6684446587" type="convenience" color="180,100,220" layer="10" x="2254.552674496197" y="1512.1570855765603" width="15" height="15">
        <param key="name" value="WinMart+"/>
    </poi>
    <poi id="convenience_6684446687" type="convenience" color="180,100,220" layer="10" x="3195.28463095217" y="1258.1174965398386" width="15" height="15">
        <param key="name" value="WinMart+"/>
    </poi>
    <poi id="convenience_6684446692" type="convenience" color="180,100,220" layer="10" x="1924.240555673954" y="2446.05802765768" width="15" height="15">
        <param key="name" value="WinMart+"/>
    </poi>
    <poi id="bank_6684761129" type="bank" color="0,255,255" layer="10" x="3520.357945942902" y="3047.0004113535397" width="15" height="15">
        <param key="name" value="Agribank"/>
    </poi>
    <poi id="bank_6685031195" type="bank" color="0,255,255" layer="10" x="3219.4643370606937" y="3069.842228982132" width="15" height="15">
        <param key="name" value="PG Bank"/>
    </poi>
    <poi id="bank_6685187348" type="bank" color="0,255,255" layer="10" x="2944.1345741548575" y="3480.2413905565627" width="15" height="15">
        <param key="name" value="VPBank"/>
    </poi>
    <poi id="bank_6685424462" type="bank" color="0,255,255" layer="10" x="2799.2596937605413" y="3213.4896148242988" width="15" height="15">
        <param key="name" value="VietinBank"/>
    </poi>
    <poi id="convenience_6687492085" type="convenience" color="180,100,220" layer="10" x="2542.7570452012587" y="1415.8361378777772" width="15" height="15">
        <param key="name" value="WinMart+"/>
    </poi>
    <poi id="bank_6689615839" type="bank" color="0,255,255" layer="10" x="2943.1458603700157" y="3083.5753008550964" width="15" height="15">
        <param key="name" value="VietinBank"/>
    </poi>
    <poi id="bank_6689615841" type="bank" color="0,255,255" layer="10" x="2968.602199431509" y="3080.6641080589034" width="15" height="15">
        <param key="name" value="GP Bank"/>
    </poi>
    <poi id="bank_6689704242" type="bank" color="0,255,255" layer="10" x="3073.6635079345433" y="3058.344458965119" width="15" height="15">
        <param key="name" value="PVcomBank"/>
    </poi>
    <poi id="convenience_6689704243" type="convenience" color="180,100,220" layer="10" x="3002.365972411819" y="3061.0939325885847" width="15" height="15">
        <param key="name" value="Cửa Hàng Tiện Lợi Mimart"/>
    </poi>
    <poi id="restaurant_6690139595" type="restaurant" color="255,200,50" layer="10" x="3147.310351092601" y="2474.2580787469633" width="15" height="15">
        <param key="name" value="Pizza Hut"/>
    </poi>
    <poi id="convenience_6696644285" type="convenience" color="180,100,220" layer="10" x="2068.159482502262" y="2692.6516132904217" width="15" height="15">
        <param key="name" value="WinMart+"/>
    </poi>
    <poi id="restaurant_6705528525" type="restaurant" color="255,200,50" layer="10" x="3042.857013796107" y="2389.216435513459" width="15" height="15">
        <param key="name" value="Chợ Cô Dần - Cơm Sườn &amp; Phá Lấu"/>
    </poi>
    <poi id="convenience_6715369161" type="convenience" color="180,100,220" layer="10" x="2999.1488479486434" y="2330.4032140085474" width="15" height="15">
        <param key="name" value="Circle K"/>
    </poi>
    <poi id="restaurant_6728910455" type="restaurant" color="255,200,50" layer="10" x="1220.160451226402" y="2691.6990273916163" width="15" height="15">
        <param key="name" value="Nhà hàng Wen Xing HongKong"/>
    </poi>
    <poi id="restaurant_6776001092" type="restaurant" color="255,200,50" layer="10" x="1269.1319384288508" y="2465.743758358527" width="15" height="15">
        <param key="name" value="Roma Pizza"/>
    </poi>
    <poi id="cafe_6807367429" type="cafe" color="139,69,19" layer="10" x="1805.0803306470625" y="2695.6360992202535" width="15" height="15">
        <param key="name" value="Cà Phê La Ka"/>
    </poi>
    <poi id="restaurant_6807375326" type="restaurant" color="255,200,50" layer="10" x="2096.5570274163038" y="2776.4533666064963" width="15" height="15">
        <param key="name" value="Nhà Hàng Sio Sushi"/>
    </poi>
    <poi id="clothes_6813546261" type="clothes" color="200,200,200" layer="10" x="2776.521577338339" y="983.5754770622589" width="15" height="15">
        <param key="name" value="Cửa Hàng Thời Trang An Phước"/>
    </poi>
    <poi id="clothes_6813546284" type="clothes" color="200,200,200" layer="10" x="1817.4123102369485" y="2253.692604091484" width="15" height="15">
        <param key="name" value="Cửa Hàng Thời Trang An Phước"/>
    </poi>
    <poi id="restaurant_6822174389" type="restaurant" color="255,200,50" layer="10" x="2902.695786459022" y="2812.4970248667523" width="15" height="15">
        <param key="name" value="Cơm 123"/>
    </poi>
    <poi id="fast_food_6880982195" type="fast_food" color="255,170,0" layer="10" x="2069.555200501345" y="1960.2269232394174" width="15" height="15">
        <param key="name" value="McDonald&apos;s"/>
    </poi>
    <poi id="convenience_6986697627" type="convenience" color="180,100,220" layer="10" x="1262.5936650073854" y="2394.728590571787" width="15" height="15">
        <param key="name" value="Circle K"/>
    </poi>
    <poi id="clothes_7034967985" type="clothes" color="200,200,200" layer="10" x="3091.880423804163" y="1185.6773347207345" width="15" height="15">
        <param key="name" value="The Uranus"/>
    </poi>
    <poi id="bank_7056041787" type="bank" color="0,255,255" layer="10" x="1594.2380152354017" y="2442.791167516727" width="15" height="15">
        <param key="name" value="Ngân hàng SCB"/>
    </poi>
    <poi id="cafe_7056055193" type="cafe" color="139,69,19" layer="10" x="1958.1610510756727" y="1049.142171036452" width="15" height="15">
        <param key="name" value="The Coffee House"/>
    </poi>
    <poi id="cafe_7056055200" type="cafe" color="139,69,19" layer="10" x="1818.1292241660412" y="2698.536697357893" width="15" height="15">
        <param key="name" value="The Coffee House"/>
    </poi>
    <poi id="cafe_7056055201" type="cafe" color="139,69,19" layer="10" x="2084.4632243039086" y="1923.1580989342183" width="15" height="15">
        <param key="name" value="The Coffee House"/>
    </poi>
    <poi id="cafe_7056055202" type="cafe" color="139,69,19" layer="10" x="2341.012366971816" y="3317.6685236105695" width="15" height="15">
        <param key="name" value="The Coffee House"/>
    </poi>
    <poi id="bank_7056059313" type="bank" color="0,255,255" layer="10" x="1498.410659285495" y="2484.1498753367923" width="15" height="15">
        <param key="name" value="Ngân hàng Vietinbank"/>
    </poi>
    <poi id="bank_7056059368" type="bank" color="0,255,255" layer="10" x="1564.3832373996265" y="3378.6070111109875" width="15" height="15">
        <param key="name" value="VIB"/>
    </poi>
    <poi id="bank_7056087660" type="bank" color="0,255,255" layer="10" x="1649.1832191445865" y="3460.007672741078" width="15" height="15">
        <param key="name" value="PVcomBank"/>
    </poi>
    <poi id="restaurant_7168595490" type="restaurant" color="255,200,50" layer="10" x="2050.0791632197797" y="2569.034575710073" width="15" height="15">
        <param key="name" value="Thuc Duong Tinh Tam"/>
    </poi>
    <poi id="restaurant_7516955870" type="restaurant" color="255,200,50" layer="10" x="1635.7108181279618" y="2504.677136080805" width="15" height="15">
        <param key="name" value="Bún Chả Sinh Từ"/>
    </poi>
    <poi id="restaurant_7516955871" type="restaurant" color="255,200,50" layer="10" x="2850.2610267396085" y="2147.861754254438" width="15" height="15">
        <param key="name" value="Bún Chả Sinh Từ"/>
    </poi>
    <poi id="restaurant_7612528482" type="restaurant" color="255,200,50" layer="10" x="3256.7432197134476" y="1626.1327389134094" width="15" height="15">
        <param key="name" value="Nhà hàng San Hô Đỏ"/>
    </poi>
    <poi id="bank_7843948143" type="bank" color="0,255,255" layer="10" x="3086.0621842943365" y="2524.4660140275955" width="15" height="15">
        <param key="name" value="MB"/>
    </poi>
    <poi id="bank_7858056541" type="bank" color="0,255,255" layer="10" x="2043.1031508661108" y="1976.5715032429434" width="15" height="15">
        <param key="name" value="Vietcombank"/>
    </poi>
    <poi id="bank_7994215086" type="bank" color="0,255,255" layer="10" x="3550.106222690316" y="1978.0738758142106" width="15" height="15">
        <param key="name" value="Vietcombank"/>
    </poi>
    <poi id="clothes_8120992988" type="clothes" color="200,200,200" layer="10" x="2926.803713457659" y="1637.3954048515297" width="15" height="15">
        <param key="name" value="Uniqlo"/>
    </poi>
    <poi id="restaurant_8132877478" type="restaurant" color="255,200,50" layer="10" x="2348.0159552238183" y="2042.0435578264296" width="15" height="15">
        <param key="name" value="Bún Ngan Cô Tuyết"/>
    </poi>
    <poi id="cafe_8163615939" type="cafe" color="139,69,19" layer="10" x="3528.5968728649896" y="1023.250251180958" width="15" height="15">
        <param key="name" value="Cà Phê Tùng"/>
    </poi>
    <poi id="cafe_8171527817" type="cafe" color="139,69,19" layer="10" x="1696.146842964692" y="2696.825337588787" width="15" height="15">
        <param key="name" value="Xưởng cafe"/>
    </poi>